version 2
run General-0-20220523-18:57:53-4948
attr configname General
attr datetime 20220523-18:57:53
attr experiment General
attr inifile omnetpp.ini
attr iterationvars ""
attr iterationvarsf ""
attr measurement ""
attr network Network
attr processid 4948
attr repetition 0
attr replication #0
attr resultdir results
attr runnumber 0
attr seedset 0
param Network.nodeTx.gen.generationInterval exponential(0.1)
param Network.**.serviceTime exponential(0.001)
param Network.nodeTx.gen.packetByteSize 12500
param Network.queue1.bufferSize 200
param Network.queue2.bufferSize 200
param Network.nodeRx.traRx.bufferSize 200
param Network.nodeTx.traTx.bufferSize 200

vector 0 Network.nodeTx.traTx "" ETV
vector 1 Network.queue1 "" ETV
vector 2 Network.nodeRx.traRx "" ETV
vector 3 Network.queue2 "" ETV
vector 4 Network.nodeRx.sink Delay ETV
vector 5 Network.queue1 "" ETV
0	2	0.079587450457	1
0	5	0.169443489305	1
0	10	0.29503656511	2
0	28	0.480996986317	3
0	30	0.573319299464	4
0	33	0.768473833052	4
0	38	0.84719394705	4
0	54	1.03509035247	3
0	64	1.090195201137	3
0	78	1.187895843776	3
0	88	1.291711773842	3
0	90	1.340224590214	4
0	104	1.397776509902	4
0	106	1.433092423816	5
0	128	1.65544486602	4
0	130	1.661283332929	5
0	172	1.992774560922	2
0	174	2.024610175006	3
0	176	2.072970385501	4
0	186	2.137915020326	4
0	208	2.294804632088	3
0	222	2.46202575212	3
0	232	2.537293163451	3
0	246	2.602681420173	3
0	256	2.686624705463	3
0	258	2.736511906365	4
0	292	2.99633731495	2
0	302	3.177174241377	2
0	316	3.184542776924	2
0	318	3.225700576548	3
0	320	3.23481667916	4
0	330	3.339277929991	4
0	332	3.341320488831	5
0	346	3.387245302557	5
0	356	3.565994068901	5
0	398	3.881011061769	2
0	412	4.031589487633	2
0	414	4.046712572999	3
0	436	4.250743998793	2
0	458	4.454833220384	1
0	496	4.839355407298	1
0	505	4.903526324566	1
0	521	5.064050280272	1
0	542	5.225450487761	1
0	551	5.287343433724	1
0	555	5.360839875843	1
0	575	5.512493473242	1
0	591	5.626087367413	1
0	594	5.638674808357	1
0	604	5.766197578579	1
0	618	5.868340766014	1
0	628	5.955572885518	1
0	630	5.971045853568	2
0	644	6.048129319415	2
0	674	6.337571367214	1
0	689	6.479707835223	1
0	698	6.553490564399	1
0	700	6.564685180462	2
0	714	6.618241752485	2
0	724	6.682411222688	2
0	726	6.713139257903	3
0	728	6.733759586106	4
0	750	6.882585068681	3
0	764	7.016114087143	3
0	766	7.077022329461	4
0	776	7.101427178535	4
0	790	7.185460649096	4
0	792	7.199988451825	5
0	794	7.201885308745	6
0	796	7.241062389813	7
0	806	7.33720048372	7
0	808	7.353414132665	8
0	822	7.448113800382	8
0	824	7.473257993589	9
0	834	7.569212791326	9
0	848	7.618068496257	9
0	878	7.905859998385	7
0	900	8.138751335806	6
0	914	8.253265231276	6
0	924	8.313039838958	6
0	926	8.357591688463	7
0	940	8.452541146813	7
0	950	8.509994387487	7
0	972	8.742629493656	6
0	986	8.862240273602	6
0	988	8.87269639618	7
0	990	8.878907925227	8
0	1032	9.228929293672	5
0	1042	9.338820540427	5
0	1056	9.444703953576	5
0	1066	9.555763698145	5
0	1068	9.574506304747	6
0	1082	9.598126975355	6
0	1084	9.642467378217	7
0	1086	9.65627024706	8
0	1108	9.795174516039	7
0	1110	9.833070712467	8
0	1120	9.926676868444	8
0	1122	9.971887074466	9
0	1136	10.011198330196	9
0	1146	10.095641109549	9
0	1148	10.09955942519	10
0	1150	10.157291856271	11
0	1164	10.257878956788	11
0	1214	10.703328641406	7
0	1248	11.022623305611	5
0	1250	11.033386816427	6
0	1260	11.139169457762	6
0	1262	11.16259960964	7
0	1276	11.263401534182	7
0	1286	11.280992888725	7
0	1340	11.817002923749	3
0	1350	11.922877195258	3
0	1364	12.010068780621	3
0	1366	12.039276833948	4
0	1376	12.092783301656	4
0	1378	12.155577459755	5
0	1392	12.219955559915	5
0	1394	12.247983260763	6
0	1404	12.34566966817	6
0	1406	12.362982413785	7
0	1420	12.404232536777	7
0	1422	12.415928077756	8
0	1432	12.528244907909	8
0	1446	12.635052127624	8
0	1448	12.673207711961	9
0	1458	12.688078938886	9
0	1472	12.838742472213	9
0	1474	12.860630531864	10
0	1504	13.159349521049	8
0	1518	13.205350916823	8
0	1528	13.313977854911	8
0	1550	13.486011020683	7
0	1552	13.487377478526	8
0	1554	13.497591966678	9
0	1568	13.595102160094	9
0	1578	13.777084052022	9
0	1600	13.889065488597	8
0	1602	13.899168966128	9
0	1636	14.256527803362	7
0	1678	14.63143094932	4
0	1700	14.841963079399	3
0	1710	14.905196739039	3
0	1712	14.976455098372	4
0	1754	15.352647826822	1
0	1756	15.358380519464	2
0	1770	15.451228369154	2
0	1780	15.511223057818	2
0	1794	15.645647585033	2
0	1796	15.647666597848	3
0	1798	15.651664227754	4
0	1808	15.709952066641	4
0	1810	15.743193090737	5
0	1852	16.132350103022	2
0	1854	16.145155779553	3
0	1868	16.189697725745	3
0	1870	16.224815334683	4
0	1880	16.290379963119	4
0	1882	16.303018826762	5
0	1896	16.419706179417	5
0	1898	16.457976274303	6
0	1920	16.670399994003	5
0	1930	16.723888431579	5
0	1952	16.974279609888	4
0	1966	16.980909350036	4
0	1968	17.005348894844	5
0	1978	17.123267847551	5
0	1992	17.206552199158	5
0	2002	17.290161952355	5
0	2024	17.490486004606	4
0	2026	17.521327488616	5
0	2040	17.592452282338	5
0	2042	17.666528177383	6
0	2072	17.915086413081	4
0	2074	17.924951443923	5
0	2096	18.178981894719	4
0	2110	18.264771458826	4
0	2112	18.27344850706	5
0	2142	18.538374099928	3
0	2144	18.570908141481	4
0	2158	18.609264162891	4
0	2160	18.610204237957	5
0	2170	18.720288828966	5
0	2192	18.905021594066	4
0	2194	18.919154665422	5
0	2208	19.02333273084	5
0	2218	19.149326111851	5
0	2240	19.333454359	4
0	2242	19.367619775703	5
0	2256	19.398371548079	5
0	2258	19.418606591936	6
0	2260	19.469326604262	7
0	2270	19.557639508458	7
0	2284	19.638119248438	7
0	2286	19.640150494318	8
0	2288	19.658175719516	9
0	2310	19.834749826757	8
0	2320	19.880922916361	8
0	2322	19.88139357041	9
0	2324	19.897227721033	10
0	2338	20.01049113523	10
0	2348	20.094799438445	10
0	2350	20.12627160453	11
0	2364	20.247922469874	11
0	2386	20.380798257249	10
0	2388	20.414832931073	11
0	2418	20.742347248844	9
0	2432	20.799137664192	9
0	2434	20.827739761443	10
0	2444	20.968842202372	10
0	2458	21.054681499155	10
0	2468	21.105115879814	10
0	2482	21.194774966893	10
0	2504	21.421148324479	9
0	2514	21.506070405635	9
0	2528	21.607936278637	9
0	2530	21.633178277926	10
0	2552	21.855328967773	9
0	2582	22.160557133461	7
0	2596	22.274517929814	7
0	2606	22.333780332559	7
0	2620	22.393418271992	7
0	2642	22.580764259978	6
0	2672	22.965064918302	4
0	2694	23.085288775027	3
0	2696	23.097641439763	4
0	2698	23.13294345309	5
0	2712	23.278625308946	5
0	2734	23.446717529401	4
0	2744	23.499789779063	4
0	2746	23.550291653838	5
0	2760	23.662819855522	5
0	2782	23.875769795129	4
0	2792	23.904510842736	4
0	2806	23.991564425369	4
0	2808	24.02913830961	5
0	2830	24.242621354608	4
0	2860	24.579058399913	2
0	2882	24.696996693277	1
0	2896	24.785782834321	1
0	2906	24.914973761201	1
0	2920	25.022757249615	1
0	2930	25.092337195705	1
0	2932	25.168523972835	2
0	2972	25.481070808601	1
0	2975	25.507276532769	1
0	2989	25.610556233834	1
0	2991	25.66078731366	2
0	3001	25.715926912673	2
0	3015	25.812372269222	2
0	3025	25.905612557263	2
0	3027	25.970023028095	3
0	3029	25.97196100623	4
0	3043	26.035473777793	4
0	3045	26.07136649938	5
0	3067	26.197270851106	4
0	3077	26.305202870972	4
0	3079	26.33916934423	5
0	3081	26.3734293067	6
0	3095	26.421792875359	6
0	3105	26.518030380936	6
0	3119	26.65632830159	6
0	3129	26.712324408597	6
0	3151	26.923069169092	5
0	3153	26.937626566937	6
0	3155	26.948481276786	7
0	3169	26.983903690011	7
0	3171	26.993595965469	8
0	3173	27.077984812728	9
0	3183	27.121687614105	9
0	3197	27.211060521936	9
0	3207	27.291315720512	9
0	3209	27.376723694076	10
0	3221	27.380144035912	11
0	3233	27.48604497445	10
0	3267	27.833298522378	8
0	3277	27.938883483244	8
0	3279	27.977596492459	9
0	3293	28.034057542571	9
0	3295	28.059065692069	10
0	3325	28.285929091338	8
0	3327	28.301158453863	9
0	3329	28.346975742259	10
0	3331	28.357207803744	11
0	3345	28.414453958887	11
0	3387	28.828234934938	8
0	3409	29.050726400661	7
0	3417	29.080882991983	8
0	3433	29.244972749776	7
0	3443	29.321980435731	7
0	3457	29.443682385265	7
0	3467	29.503089735097	7
0	3469	29.51365099946	8
0	3471	29.52413918302	9
0	3493	29.776067396028	8
0	3507	29.819501961622	8
0	3517	29.944762714113	8
0	3531	30.008108975885	8
0	3601	30.684648027879	2
0	3615	30.868621306387	2
0	3625	30.884808315058	2
0	3647	31.119826044033	1
0	3669	31.322416925743	1
0	3672	31.326245217031	1
0	3674	31.343977774546	2
0	3686	31.414969567268	3
0	3696	31.51056620966	3
0	3700	31.528820069848	3
0	3702	31.542038440809	4
0	3722	31.69302078637	4
0	3744	31.881413675029	3
0	3766	32.081612324582	2
0	3782	32.246284234715	1
0	3790	32.299284522529	2
0	3804	32.383472618702	2
0	3806	32.398551719721	3
0	3810	32.45083872273	3
0	3812	32.454217401285	4
0	3814	32.461384939716	5
0	3856	32.866369623596	2
0	3876	32.985913480224	2
0	3880	33.032640736865	2
0	3888	33.09307064405	3
0	3892	33.147556356864	3
0	3906	33.275589777245	3
0	3914	33.280781032463	4
0	3936	33.482058306084	3
0	3940	33.527549490563	3
0	3980	33.898545549753	1
0	3982	33.900222326352	2
0	4004	34.093880050101	1
0	4006	34.120112981018	2
0	4008	34.12129130421	3
0	4024	34.266070712409	2
0	4032	34.310695994461	3
0	4066	34.599157169671	1
0	4078	34.730087006073	1
0	4093	34.868716141275	1
0	4102	34.887545638797	1
0	4104	34.929006893063	2
0	4118	35.002620003062	2
0	4122	35.069866054745	2
0	4124	35.075453060034	3
0	4132	35.116850952301	4
0	4134	35.139164873111	5
0	4136	35.158947823857	6
0	4138	35.160817370899	7
0	4142	35.179569266019	7
0	4162	35.33741053823	7
0	4176	35.399670272628	7
0	4178	35.425020843142	8
0	4200	35.632623949186	7
0	4204	35.674989659322	7
0	4232	35.963444088163	6
0	4266	36.226665974418	4
0	4276	36.32037984619	4
0	4290	36.442259526524	4
0	4300	36.533055929256	4
0	4302	36.536291609721	5
0	4324	36.689374732348	4
0	4326	36.707370466503	5
0	4330	36.776690443457	5
0	4344	36.873838659266	5
0	4346	36.879006949846	6
0	4354	36.965099313514	7
0	4376	37.085196404168	6
0	4378	37.112363211202	7
0	4432	37.600276500001	3
0	4456	37.872411325592	1
0	4464	37.903508106089	2
0	4478	37.998691076843	2
0	4488	38.112350726369	2
0	4502	38.189058691826	2
0	4524	38.388775888575	1
0	4528	38.477913746266	1
0	4548	38.616881452644	1
0	4558	38.74785998978	1
0	4596	39.081653423165	1
0	4599	39.119042072755	1
0	4613	39.199840078095	1
0	4615	39.250626590364	2
0	4617	39.274501877649	3
0	4627	39.298054334991	3
0	4629	39.323214196302	4
0	4631	39.34381740115	5
0	4633	39.36850332803	6
0	4667	39.65741088722	4
0	4677	39.741708764761	4
0	4691	39.876243508084	4
0	4701	39.936411406736	4
0	4715	40.0038358637	4
0	4745	40.355283731754	2
0	4757	40.381085008148	3
0	4769	40.495198798434	2
0	4771	40.524549563626	3
0	4773	40.533464992626	4
0	4775	40.539443088918	5
0	4777	40.54525032513	6
0	4791	40.602240081661	6
0	4793	40.66915145403	7
0	4803	40.706518433469	7
0	4825	40.919385442922	6
0	4839	41.038571253287	6
0	4881	41.41324071467	3
0	4883	41.460682343703	4
0	4893	41.55682630086	4
0	4895	41.576623074393	5
0	4909	41.654820646481	5
0	4911	41.657319481812	6
0	4933	41.8501554955	5
0	4935	41.857117262607	6
0	4957	41.993310435038	5
0	4967	42.107064285592	5
0	4969	42.172187358784	6
0	4983	42.232645480618	6
0	4993	42.345681035209	6
0	5007	42.422593015319	6
0	5017	42.51599904858	6
0	5039	42.742983050158	5
0	5053	42.868403377167	5
0	5103	43.332368629804	1
0	5117	43.395761631743	1
0	5119	43.420210733947	2
0	5127	43.481094025321	3
0	5143	43.589884468682	2
0	5165	43.826776285766	1
0	5167	43.857336775947	2
0	5169	43.872096379236	3
0	5171	43.874183101097	4
0	5181	43.900218242252	4
0	5195	44.042256587811	4
0	5217	44.255612916558	3
0	5227	44.294181685963	3
0	5249	44.528966062106	2
0	5251	44.577329900855	3
0	5271	44.681114908404	3
0	5275	44.769865101252	3
0	5289	44.809122404071	3
0	5311	44.986936737754	2
0	5313	45.060273505071	3
0	5323	45.159423934361	3
0	5325	45.159429469551	4
0	5347	45.365511593639	3
0	5361	45.402887923021	3
0	5363	45.434845388508	4
0	5373	45.490262471413	4
0	5387	45.650234415597	4
0	5409	45.866810783684	3
0	5419	45.887345560558	3
0	5433	46.001251325625	3
0	5463	46.306569792584	1
0	5465	46.367474253855	2
0	5487	46.483785582198	1
0	5489	46.549835890173	2
0	5491	46.57410773954	3
0	5513	46.729574033321	2
0	5547	47.024022061063	1
0	5550	47.050086074001	1
0	5570	47.181336873298	1
0	5592	47.393611538692	1
0	5595	47.422906684541	1
0	5597	47.460549619693	2
0	5605	47.484541971637	3
0	5641	47.800251525779	1
0	5644	47.873274292303	1
0	5654	47.937093152862	1
0	5656	47.939692927381	2
0	5670	48.064028005176	2
0	5678	48.087280507014	3
0	5682	48.103967971137	3
0	5684	48.159251808202	4
0	5704	48.290349045018	4
0	5708	48.337216692616	4
0	5722	48.441137256274	4
0	5732	48.50342018725	4
0	5734	48.527612151727	5
0	5736	48.560133753525	6
0	5748	48.580769552885	7
0	5752	48.669148118488	7
0	5774	48.833955735804	6
0	5796	49.033359655932	5
0	5806	49.170827651312	5
0	5818	49.183330910304	6
0	5828	49.295676960259	6
0	5832	49.368529344532	6
0	5846	49.400949255881	6
0	5848	49.415113459361	7
0	5850	49.434339603445	8
0	5860	49.560520870794	8
0	5880	49.682420805312	8
0	5884	49.732848798637	8
0	5896	49.795052490545	9
0	5900	49.87839031461	9
0	5922	50.061916654904	8
0	5930	50.082162531274	9
0	5934	50.105086963795	9
0	5936	50.120734540833	10
0	5938	50.138761970791	11
0	5952	50.205716029877	11
0	5954	50.219050092204	12
0	5956	50.262995631253	13
0	5976	50.391038066651	13
0	6000	50.673101661493	11
0	6002	50.676194290649	12
0	6024	50.821149768292	11
0	6034	50.958584069734	11
0	6054	51.096680379301	11
0	6058	51.106397147138	11
0	6080	51.340446343204	10
0	6082	51.364966152468	11
0	6084	51.373677010794	12
0	6106	51.512008657409	11
0	6118	51.592347833676	12
0	6130	51.723910459506	11
0	6144	51.811731967378	11
0	6146	51.816400741742	12
0	6176	52.143250381824	10
0	6178	52.16671596675	11
0	6192	52.201267925121	11
0	6194	52.235083396605	12
0	6196	52.262636190309	13
0	6206	52.375728038228	13
0	6218	52.386296755638	14
0	6220	52.392808042117	15
0	6222	52.394464651559	16
0	6226	52.475578753782	16
0	6256	52.740834605334	14
0	6258	52.741762907772	15
0	6272	52.852603883193	15
0	6294	53.031602843641	14
0	6314	53.185385715089	14
0	6358	53.600982824645	10
0	6360	53.634073812763	11
0	6370	53.755642860099	11
0	6384	53.843930914595	11
0	6386	53.863975134104	12
0	6388	53.870584335173	13
0	6398	53.942408983184	13
0	6412	54.008889758139	13
0	6420	54.095746331286	14
0	6456	54.475148709595	11
0	6478	54.630049877511	10
0	6500	54.839205534773	9
0	6510	54.9324667203	9
0	6512	54.973739706973	10
0	6524	54.998381289194	11
0	6556	55.324273386912	8
0	6568	55.385001315774	9
0	6572	55.411359027058	9
0	6594	55.622447904496	8
0	6624	55.920667972043	6
0	6636	55.988448172249	7
0	6660	56.272112191587	5
0	6680	56.397835891144	5
0	6692	56.558381767451	4
0	6706	56.624966016115	4
0	6716	56.724512380452	4
0	6730	56.847800426755	4
0	6752	57.055176573065	3
0	6762	57.12412002685	3
0	6764	57.158795357229	4
0	6786	57.344938521527	3
0	6808	57.533948691337	2
0	6810	57.555558312996	3
0	6824	57.651759505655	3
0	6844	57.80018375392	3
0	6848	57.801516278403	3
0	6878	58.167482011479	1
0	6892	58.210135592683	1
0	6914	58.408410483143	1
0	6917	58.424443892592	1
0	6927	58.576050785575	1
0	6965	58.976845751062	1
0	7012	59.397031693687	1
0	7015	59.462111427923	1
0	7037	59.602178997619	1
0	7040	59.670973345465	1
0	7042	59.671378977597	2
0	7052	59.773397686392	2
0	7066	59.804797476198	2
0	7068	59.850776607976	3
0	7078	59.903623330806	3
0	7080	59.918345834537	4
0	7082	59.974246601536	5
0	7104	60.14690993951	4
0	7116	60.182269597036	5
0	7120	60.203322925856	5
0	7122	60.254594390119	6
0	7132	60.326198921918	6
0	7134	60.339056945646	7
0	7136	60.364458083481	8
0	7178	60.759221410237	5
0	7180	60.769518246609	6
0	7194	60.821626128717	6
0	7216	61.019815162828	5
0	7226	61.104028793112	5
0	7260	61.46492289361	3
0	7270	61.507022223415	3
0	7304	61.831018520105	1
0	7324	61.98654795614	1
0	7346	62.223586714201	1
0	7349	62.276582872128	1
0	7371	62.425325847562	1
0	7374	62.469840781503	1
0	7382	62.510359069737	2
0	7386	62.561358153122	2
0	7388	62.569816102298	3
0	7400	62.605745492811	4
0	7404	62.658042258177	4
0	7424	62.807305474596	4
0	7428	62.83373252101	4
0	7456	63.094389701242	3
0	7458	63.108602252381	4
0	7462	63.147952493493	4
0	7464	63.153443230748	5
0	7498	63.458929208649	3
0	7518	63.588243994529	3
0	7520	63.589648653653	4
0	7522	63.590797978674	5
0	7526	63.667040347095	5
0	7546	63.814260762894	5
0	7550	63.850584984784	5
0	7552	63.86647830275	6
0	7580	64.080916849201	5
0	7582	64.089203076493	6
0	7584	64.118054347528	7
0	7588	64.127441802256	7
0	7602	64.240579679016	7
0	7612	64.352068421207	7
0	7632	64.518364999274	7
0	7636	64.546517401521	7
0	7648	64.603106855684	8
0	7652	64.657672627161	8
0	7672	64.797159536287	8
0	7676	64.878661369377	8
0	7698	65.055623351698	7
0	7720	65.252629108257	6
0	7728	65.300276966517	7
0	7744	65.430121530077	6
0	7746	65.440274938471	7
0	7748	65.471790941343	8
0	7756	65.501381128668	9
0	7758	65.51547791711	10
0	7772	65.605110837612	10
0	7774	65.610807490859	11
0	7778	65.675524961263	11
0	7786	65.711421093101	12
0	7790	65.7783513803	12
0	7802	65.808748536223	13
0	7806	65.870092445182	13
0	7816	65.930998890714	13
0	7828	66.005357209892	14
0	7838	66.120331348667	14
0	7842	66.178673725771	14
0	7862	66.297623350904	14
0	7884	66.489107576668	13
0	7886	66.522447910506	14
0	7890	66.57926495888	14
0	7904	66.627056757631	14
0	7924	66.802428222133	14
0	7926	66.822413775925	15
0	7936	66.893614582487	15
0	7952	67.04898913269	14
0	7954	67.058022857098	15
0	7956	67.063875646993	16
0	7966	67.171768337843	16
0	7986	67.291169674903	16
0	7988	67.314311772099	17
0	8004	67.465133295262	16
0	8026	67.653045138683	15
0	8046	67.803286418054	15
0	8056	67.917655480113	15
0	8060	67.947687988142	15
0	8062	67.967334176732	16
0	8074	68.014144822055	17
0	8076	68.021386733066	18
0	8086	68.109962797669	18
0	8088	68.110936338603	19
0	8092	68.142794723391	19
0	8114	68.365403122335	18
0	8126	68.411742125089	19
0	8130	68.426067427227	19
0	8132	68.448014243316	20
0	8152	68.599060403438	20
0	8156	68.660652331816	20
0	8184	68.919897192694	19
0	8186	68.924460997644	20
0	8202	69.050050346078	19
0	8222	69.210892130987	19
0	8226	69.278387228352	19
0	8234	69.286395113946	20
0	8238	69.349788326595	20
0	8250	69.422942860508	21
0	8274	69.637252830551	19
0	8276	69.673897959734	20
0	8286	69.740921147392	20
0	8300	69.827087896572	20
0	8308	69.880628331681	21
0	8342	70.201109214642	19
0	8344	70.220238819232	20
0	8354	70.323963328642	20
0	8368	70.388454177759	20
0	8370	70.392054460734	21
0	8382	70.545139302628	20
0	8394	70.60142182281	21
0	8404	70.682711658929	21
0	8408	70.754050087209	21
0	8410	70.771469603246	22
0	8424	70.848294937433	22
0	8426	70.863823495983	23
0	8436	70.978203033895	23
0	8456	71.083031944391	23
0	8458	71.11554903144	24
0	8472	71.19303326939	24
0	8474	71.206828592583	25
0	8478	71.246234349778	25
0	8486	71.296103583065	26
0	8488	71.312004784745	27
0	8522	71.6252877337	25
0	8526	71.642707605358	25
0	8528	71.663426123583	26
0	8530	71.677284805725	27
0	8558	71.911608798734	26
0	8572	71.998102609677	26
0	8576	72.076586311636	26
0	8584	72.086266058867	27
0	8588	72.147314343367	27
0	8620	72.388715986418	26
0	8642	72.60245815546	25
0	8644	72.611119854905	26
0	8648	72.672480275879	26
0	8670	72.833613475791	25
0	8680	72.962409673299	25
0	8702	73.172073300651	24
0	8714	73.222993549338	25
0	8718	73.232805501601	25
0	8740	73.467192465681	24
0	8748	73.522758356997	25
0	8764	73.639884726492	24
0	8772	73.703982081018	25
0	8786	73.824253459401	25
0	8796	73.911050457603	25
0	8800	73.950758552605	25
0	8814	74.076722669667	25
0	8834	74.218101002621	25
0	8836	74.220845212664	26
0	8846	74.321922128974	26
0	8862	74.453374338782	25
0	8870	74.480820690982	26
0	8886	74.62647671214	25
0	8888	74.643976216962	26
0	8890	74.644957660602	27
0	8910	74.804113272881	27
0	8914	74.840971566842	27
0	8944	75.160797064519	25
0	8956	75.18730637466	26
0	8960	75.248580919146	26
0	8968	75.318583482758	27
0	8982	75.407983623026	27
0	9012	75.715291145305	25
0	9034	75.91028883649	24
0	9048	75.991890692886	24
0	9052	76.052996449015	24
0	9054	76.063251638315	25
0	9084	76.366645895555	23
0	9098	76.463846984661	23
0	9108	76.549590494922	23
0	9130	76.748384440406	22
0	9150	76.920291371585	22
0	9154	76.937445234322	22
0	9176	77.176963213261	21
0	9230	77.665313112296	17
0	9252	77.834336607772	16
0	9254	77.843219846037	17
0	9256	77.860585502358	18
0	9258	77.870507655006	19
0	9268	77.969635605582	19
0	9282	78.07004072297	19
0	9290	78.120862668375	20
0	9324	78.419040634108	18
0	9328	78.425517203387	18
0	9356	78.701577648955	17
0	9360	78.756748010214	17
0	9372	78.816056169947	18
0	9376	78.845989008189	18
0	9386	78.976072750935	18
0	9408	79.165145666378	17
0	9428	79.300717517763	17
0	9430	79.304104703287	18
0	9434	79.340775218666	18
0	9468	79.660151405934	16
0	9470	79.672908763314	17
0	9478	79.716816461873	18
0	9482	79.775493342541	18
0	9494	79.819608823614	19
0	9498	79.869329752248	19
0	9500	79.870976080646	20
0	9510	79.946872558071	20
0	9512	79.967357784786	21
0	9534	80.154021831804	20
0	9546	80.205314530987	21
0	9556	80.282160788726	21
0	9580	80.547079614949	19
0	9594	80.661107502641	19
0	9596	80.671600777374	20
0	9606	80.76555097596	20
0	9640	81.056142936326	18
0	9642	81.06651001999	19
0	9664	81.270139438717	18
0	9672	81.27979356662	19
0	9676	81.340336944784	19
0	9678	81.346096236466	20
0	9690	81.385652796506	21
0	9692	81.394703543521	22
0	9694	81.421197037285	23
0	9698	81.448269476359	23
0	9708	81.543581730186	23
0	9730	81.726535945772	22
0	9732	81.729899337864	23
0	9744	81.803791339858	24
0	9746	81.805364252235	25
0	9750	81.877328742004	25
0	9760	81.933329579337	25
0	9774	82.03826379593	25
0	9776	82.045313990766	26
0	9784	82.123969899955	27
0	9788	82.152997241467	27
0	9790	82.156297639973	28
0	9802	82.181292721638	29
0	9806	82.268078908627	29
0	9814	82.2972735158	30
0	9830	82.444715738278	29
0	9832	82.458763309974	30
0	9840	82.505960118751	31
0	9842	82.507171043257	32
0	9846	82.574706630274	32
0	9858	82.586978131006	33
0	9900	82.986734478678	30
0	9910	83.083093748307	30
0	9912	83.111151340925	31
0	9948	83.477107552771	28
0	9956	83.523999685498	29
0	10010	83.988027685093	25
0	10012	83.992701175267	26
0	10016	84.045304254843	26
0	10024	84.082420426923	27
0	10026	84.100208102709	28
0	10042	84.278301570198	27
0	10062	84.380123328079	27
0	10074	84.544641670786	26
0	10086	84.612036015208	27
0	10096	84.714207849949	27
0	10140	85.168990235135	23
0	10152	85.214893027884	24
0	10154	85.221646443572	25
0	10158	85.259152637884	25
0	10178	85.412046524955	25
0	10190	85.573912631597	24
0	10202	85.607936353558	25
0	10204	85.615241519273	26
0	10208	85.642872038566	26
0	10218	85.757938297859	26
0	10232	85.866558628975	26
0	10240	85.914479898423	27
0	10244	85.942724569619	27
0	10258	86.043217900525	27
0	10268	86.152837156626	27
0	10300	86.414401249868	26
0	10310	86.487239007171	26
0	10326	86.679612864238	25
0	10336	86.734793076402	25
0	10348	86.803644465206	26
0	10358	86.884542434719	26
0	10362	86.940375113645	26
0	10364	86.974209725515	27
0	10386	87.147121689283	26
0	10400	87.269734910506	26
0	10420	87.403762506704	26
0	10424	87.457352386238	26
0	10432	87.516618128032	27
0	10436	87.561332118292	27
0	10476	87.908396626346	25
0	10498	88.084805365565	24
0	10502	88.129929245414	24
0	10534	88.388911859964	23
0	10538	88.439584181354	23
0	10540	88.44429410846	24
0	10550	88.578496082578	24
0	10562	88.604974309912	25
0	10566	88.664591499052	25
0	10574	88.70744225947	26
0	10608	88.984356707754	24
0	10620	89.15307853663	23
0	10632	89.182815889421	24
0	10674	89.606117469054	21
0	10678	89.654205291484	21
0	10718	90.001490862074	19
0	10728	90.120939856425	19
0	10752	90.356273333232	17
0	10784	90.583644049901	16
0	10786	90.618820788444	17
0	10790	90.631724638762	17
0	10838	91.114696663559	14
0	10842	91.142343935213	14
0	10844	91.171034844751	15
0	10856	91.196946070339	16
0	10858	91.208140524453	17
0	10862	91.275378814657	17
0	10892	91.576875641876	15
0	10924	91.798997060196	14
0	10928	91.825578715098	14
0	10930	91.869912154698	15
0	10950	91.986955727699	15
0	10954	92.035607641675	15
0	10956	92.041620478588	16
0	10984	92.290183587023	15
0	10998	92.421379895131	15
0	11002	92.433463034757	15
0	11024	92.646933274211	14
0	11034	92.746663166628	14
0	11036	92.778468621147	15
0	11048	92.792718915712	16
0	11052	92.840370497809	16
0	11060	92.887250066973	17
0	11064	92.934137882536	17
0	11066	92.973354011498	18
0	11086	93.111499919483	18
0	11102	93.225479460149	17
0	11104	93.252635039317	18
0	11124	93.411370762286	18
0	11128	93.430227234711	18
0	11136	93.500331785644	19
0	11140	93.559986777332	19
0	11152	93.595118905486	20
0	11156	93.631426789504	20
0	11178	93.848549377639	19
0	11200	94.031302004421	18
0	11202	94.074668489958	19
0	11210	94.101815486601	20
0	11226	94.23590565906	19
0	11234	94.305699413943	20
0	11248	94.386748728661	20
0	11272	94.672491263443	18
0	11280	94.694995512829	19
0	11294	94.795507077686	19
0	11298	94.875029297817	19
0	11320	95.076987748139	18
0	11330	95.150310282007	18
0	11364	95.432001455003	16
0	11366	95.47489263858	17
0	11386	95.613828489275	17
0	11388	95.616321298848	18
0	11400	95.736577033319	17
0	11402	95.752691291202	18
0	11442	96.096785695961	16
0	11444	96.110925007234	17
0	11500	96.629437949537	12
0	11510	96.75250983464	12
0	11522	96.812625299278	13
0	11534	96.936093286883	12
0	11536	96.943443924625	13
0	11550	97.03805409875	13
0	11552	97.072697431499	14
0	11572	97.184143254671	14
0	11574	97.200672555903	15
0	11578	97.260005612729	15
0	11586	97.314045882489	16
0	11602	97.433144027829	15
0	11604	97.447218543372	16
0	11612	97.494752510336	17
0	11626	97.587416370366	17
0	11628	97.597955983357	18
0	11632	97.646213504873	18
0	11662	97.968745113245	16
0	11694	98.194492792321	15
0	11696	98.202011973237	16
0	11728	98.545574312485	13
0	11730	98.54752324178	14
0	11744	98.62668415124	14
0	11784	99.015775160281	12
0	11788	99.047909190568	12
0	11790	99.063982194625	13
0	11800	99.153687496036	13
0	11812	99.18362279633	14
0	11834	99.41069380707	13
0	11838	99.434968350806	13
0	11846	99.487179481247	14
0	11850	99.57390868313	14
0	11864	99.654222360322	14
0	11906	100.026163191412	11
0	11908	100.057860929401	12
0	11916	100.089745034242	13
0	11920	100.150523510654	13
0	11960	100.501429865754	11
0	11964	100.55279842708	11
0	11966	100.555381231523	12
0	11978	100.583938123573	13
0	12000	100.802902795029	12
0	12004	100.873397727167	12
0	12024	100.996706599889	12
0	12028	101.033868175372	12
0	12030	101.066409847088	13
0	12038	101.113096281444	14
0	12062	101.338345568451	12
0	12074	101.412783394591	13
0	12076	101.415471456542	14
0	12088	101.554339183929	13
0	12102	101.652592018201	13
0	12110	101.693164652588	14
0	12114	101.733144179836	14
0	12146	101.991055492915	13
0	12178	102.332547983158	10
0	12200	102.530829241185	9
0	12202	102.549290828476	10
0	12204	102.554282388719	11
0	12236	102.786034994976	10
0	12238	102.815290055095	11
0	12242	102.855328208241	11
0	12250	102.914411730281	12
0	12274	103.134444662325	10
0	12276	103.145496249985	11
0	12288	103.217332833506	12
0	12292	103.260176936385	12
0	12302	103.331640355123	12
0	12316	103.466385237492	12
0	12324	103.515296078554	13
0	12340	103.629400411979	12
0	12348	103.704921593755	13
0	12362	103.802309452903	13
0	12392	104.091821214605	11
0	12406	104.215791022667	11
0	12430	104.439155007777	9
0	12432	104.462086724941	10
0	12442	104.575132444772	10
0	12454	104.616941610666	11
0	12464	104.718836928774	11
0	12480	104.831612972131	10
0	12488	104.911100255738	11
0	12510	105.122490937203	10
0	12514	105.154330238809	10
0	12528	105.232785908501	10
0	12530	105.248834319237	11
0	12538	105.282060381595	12
0	12554	105.476065202583	11
0	12556	105.479135379884	12
0	12576	105.579936733932	12
0	12586	105.70384038467	12
0	12590	105.739456962826	12
0	12592	105.740248497477	13
0	12604	105.801907806329	14
0	12608	105.848537508973	14
0	12610	105.851020829748	15
0	12620	105.926637454527	15
0	12632	106.008296723412	16
0	12656	106.263544372767	14
0	12664	106.308353169605	15
0	12666	106.317728708366	16
0	12680	106.387586808974	16
0	12684	106.439664695461	16
0	12686	106.456344271273	17
0	12688	106.45880563568	18
0	12696	106.514232483021	19
0	12700	106.556180415368	19
0	12732	106.792809441753	18
0	12742	106.890156696118	18
0	12744	106.891011497983	19
0	12746	106.923732536116	20
0	12782	107.270671919994	17
0	12790	107.294212506644	18
0	12804	107.411619520323	18
0	12806	107.423915777012	19
0	12810	107.434387004355	19
0	12818	107.520458475106	20
0	12822	107.554675944268	20
0	12836	107.673508860297	20
0	12846	107.75096053909	20
0	12860	107.86242163939	20
0	12880	107.991210663301	20
0	12910	108.288531497249	18
0	12914	108.337775634887	18
0	12916	108.338046322345	19
0	12918	108.363804808979	20
0	12932	108.467989255461	20
0	12942	108.528660496385	20
0	12954	108.620387676076	21
0	12986	108.97823784866	18
0	13000	109.067090719893	18
0	13022	109.246558031293	17
0	13052	109.575622914319	15
0	13084	109.82188734126	14
0	13086	109.823588903633	15
0	13098	109.933635756681	14
0	13112	110.052867334103	14
0	13120	110.110968199649	15
0	13136	110.278996439657	14
0	13156	110.394543912532	14
0	13160	110.465839560445	14
0	13170	110.570422089724	14
0	13182	110.611063376399	15
0	13184	110.614016557515	16
0	13196	110.770482212585	15
0	13228	111.02247108197	14
0	13232	111.032701260071	14
0	13240	111.110889702381	15
0	13244	111.169235719612	15
0	13298	111.641875239298	11
0	13306	111.715262236	12
0	13310	111.763567538426	12
0	13330	111.881970312061	12
0	13346	112.046305635582	11
0	13348	112.055834083869	12
0	13356	112.117639321583	13
0	13360	112.143485246455	13
0	13380	112.318830058283	13
0	13384	112.371644457355	13
0	13398	112.449105830991	13
0	13408	112.546735033288	13
0	13430	112.765006422217	12
0	13462	112.983008466933	11
0	13484	113.195123912618	10
0	13494	113.291573888794	10
0	13498	113.331368728259	10
0	13500	113.345693598638	11
0	13512	113.397516383448	12
0	13554	113.791662251911	9
0	13558	113.870330563457	9
0	13580	114.075735811843	8
0	13590	114.172940708691	8
0	13604	114.242801065386	8
0	13612	114.29050084048	9
0	13636	114.546052612146	7
0	13648	114.624169491145	8
0	13658	114.702122994028	8
0	13660	114.715010858632	9
0	13684	114.971804121502	7
0	13704	115.085965673854	7
0	13720	115.263101005786	6
0	13728	115.296945119068	7
0	13764	115.642046132004	4
0	13766	115.646438855417	5
0	13794	115.898740601552	4
0	13796	115.911081548703	5
0	13798	115.914751455731	6
0	13802	115.926004450369	6
0	13804	115.945214007984	7
0	13816	115.98326510284	8
0	13820	116.032552979677	8
0	13822	116.060860223262	9
0	13852	116.364813382275	7
0	13866	116.447545974635	7
0	13874	116.483217599902	8
0	13896	116.720041205202	7
0	13900	116.737532231212	7
0	13912	116.824307745506	8
0	13936	117.041731036219	6
0	13946	117.132845617026	6
0	13958	117.191975895583	7
0	13960	117.21916247944	8
0	13984	117.457624013763	6
0	13994	117.544585549847	6
0	13996	117.562048329495	7
0	13998	117.577815534778	8
0	14018	117.686025723226	8
0	14022	117.726917476151	8
0	14034	117.784946434949	9
0	14044	117.88317025339	9
0	14046	117.891127268899	10
0	14050	117.93596019956	10
0	14064	118.055185423768	10
0	14092	118.297090563184	9
0	14096	118.325512537537	9
0	14118	118.536290573377	8
0	14120	118.540332731142	9
0	14132	118.597276342529	10
0	14134	118.603457957394	11
0	14138	118.676358629532	11
0	14146	118.682660973958	12
0	14150	118.747033454543	12
0	14182	118.985340281862	11
0	14184	119.005718820083	12
0	14196	119.140381548937	11
0	14208	119.197432147745	12
0	14232	119.425771551187	10
0	14234	119.446541879808	11
0	14244	119.558193737164	11
0	14264	119.683793297041	11
0	14268	119.759070262245	11
0	14282	119.833095481386	11
0	14284	119.869400196825	12
0	14292	119.908049615029	13
0	14356	120.527640626901	7
0	14358	120.527951062582	8
0	14360	120.572922399377	9
0	14374	120.663879469864	9
0	14384	120.727489815301	9
0	14398	120.83220904085	9
0	14400	120.879729984729	10
0	14408	120.88025029801	11
0	14444	121.269114770287	8
0	14484	121.620512652582	6
0	14488	121.639708442777	6
0	14498	121.748733001423	6
0	14510	121.788480909415	7
0	14512	121.82317379773	8
0	14524	121.937226245226	7
0	14526	121.959586151059	8
0	14528	121.966115510624	9
0	14562	122.226082835159	7
0	14570	122.319540876794	8
0	14574	122.356538794769	8
0	14586	122.421479867448	9
0	14590	122.473100212942	9
0	14598	122.506507721248	10
0	14612	122.606763962081	10
0	14616	122.633999084716	10
0	14638	122.855321807869	9
0	14648	122.927582031623	9
0	14660	122.984252227608	10
0	14664	123.030127357873	10
0	14692	123.293540497467	9
0	14696	123.354516714753	9
0	14710	123.444185298412	9
0	14718	123.485355356199	10
0	14722	123.54188088433	10
0	14762	123.894196018453	8
0	14776	123.984036255097	8
0	14778	123.998358582245	9
0	14782	124.042132527856	9
0	14784	124.052314092054	10
0	14794	124.159322341017	10
0	14806	124.201389108257	11
0	14816	124.307033207675	11
0	14830	124.396443796488	11
0	14842	124.568882985035	10
0	14856	124.676522030977	10
0	14866	124.728066785978	10
0	14868	124.778693182686	11
0	14880	124.782522062463	12
0	14950	125.505868907743	6
0	14992	125.923413268166	3
0	14996	125.966783215206	3
0	15010	126.026229816876	3
0	15020	126.154030029793	3
0	15054	126.431505491951	1
0	15064	126.533001387788	1
0	15078	126.644488073195	1
0	15098	126.812181546494	1
0	15102	126.84320115882	1
0	15140	127.217116006624	1
0	15149	127.300142071301	1
0	15171	127.520682151681	1
0	15202	127.835181906951	1
0	15223	127.979812664167	1
0	15226	127.991858490944	1
0	15236	128.111673629728	1
0	15238	128.143450563866	2
0	15252	128.184322329289	2
0	15254	128.1928844087	3
0	15256	128.208864386743	4
0	15266	128.353796573691	4
0	15268	128.360264934206	5
0	15270	128.362457672275	6
0	15284	128.390151894808	6
0	15286	128.404915083131	7
0	15288	128.461528038301	8
0	15298	128.49172353865	8
0	15300	128.565537212905	9
0	15322	128.770395528565	8
0	15344	128.918712869369	7
0	15346	128.938486046163	8
0	15380	129.25727446339	6
0	15390	129.314063232702	6
0	15392	129.326542541928	7
0	15394	129.365864270627	8
0	15396	129.377181603866	9
0	15410	129.464745483675	9
0	15420	129.553830863864	9
0	15454	129.829452171612	7
0	15464	129.96625757375	7
0	15498	130.248909970806	5
0	15520	130.437396432226	4
0	15522	130.442790127868	5
0	15552	130.71741531489	3
0	15566	130.808101625621	3
0	15608	131.218095054888	1
0	15629	131.440473336463	1
0	15638	131.491522852733	1
0	15654	131.643359767573	1
0	15663	131.69121742468	1
0	15665	131.714984011791	2
0	15667	131.730978433126	3
0	15683	131.875793045521	2
0	15703	131.991290498878	2
0	15705	132.012246947451	3
0	15715	132.119180053288	3
0	15739	132.348205775278	1
0	15761	132.54630130489	1
0	15764	132.547198443623	1
0	15766	132.55743029158	2
0	15768	132.56688696523	3
0	15780	132.635758049626	4
0	15790	132.732301629596	4
0	15804	132.819309620633	4
0	15808	132.867507541589	4
0	15816	132.895156309999	5
0	15818	132.905311187057	6
0	15820	132.923826792406	7
0	15862	133.343353654418	4
0	15884	133.539665983374	3
0	15908	133.766562892036	1
0	15910	133.772594694414	2
0	15922	133.804218404998	3
0	15926	133.86782345211	3
0	15934	133.93191499443	4
0	15936	133.944226039922	5
0	15950	134.009571365895	5
0	15954	134.070646783382	5
0	15962	134.141653817948	6
0	16004	134.532667894913	3
0	16040	134.874581545182	1
0	16049	134.929695340013	1
0	16051	134.940226781933	2
0	16073	135.134805240325	1
0	16075	135.138851035891	2
0	16077	135.151329788127	3
0	16091	135.21743776821	3
0	16093	135.249080507329	4
0	16103	135.310377234197	4
0	16105	135.362093926904	5
0	16119	135.388916236231	5
0	16121	135.439967493825	6
0	16123	135.446034923842	7
0	16133	135.557321305003	7
0	16135	135.570542464986	8
0	16149	135.612811443793	8
0	16171	135.807131499426	7
0	16181	135.932226365492	7
0	16195	135.983253505268	7
0	16205	136.085193024075	7
0	16207	136.133222205456	8
0	16221	136.184165056478	8
0	16223	136.18638692168	9
0	16225	136.242908085165	10
0	16235	136.289868888378	10
0	16249	136.3851974815	10
0	16259	136.493552300329	10
0	16261	136.50081390614	11
0	16275	136.5989923967	11
0	16285	136.771818333997	11
0	16319	137.017148918147	9
0	16329	137.123113412468	9
0	16343	137.234524886115	9
0	16353	137.364112667765	9
0	16367	137.403281121753	9
0	16377	137.480267315334	9
0	16379	137.518279218468	10
0	16381	137.529986222401	11
0	16403	137.70915165599	10
0	16405	137.761077028478	11
0	16427	137.910600140291	10
0	16429	137.962582334779	11
0	16443	137.995593004184	11
0	16445	138.034312750908	12
0	16455	138.159463646603	12
0	16457	138.162504445979	13
0	16471	138.244961618297	13
0	16483	138.378618460029	12
0	16495	138.429644375065	13
0	16497	138.441273541742	14
0	16507	138.516958973465	14
0	16521	138.610177647522	14
0	16523	138.619086243271	15
0	16533	138.740561814128	15
0	16547	138.850126801153	15
0	16557	138.950854069992	15
0	16559	138.953862349546	16
0	16593	139.273628225287	14
0	16623	139.493709912724	12
0	16625	139.504613099086	13
0	16639	139.619220902592	13
0	16661	139.821087278585	12
0	16683	140.043016830762	11
0	16685	140.045979305992	12
0	16687	140.04610013618	13
0	16697	140.122654044407	13
0	16731	140.399464050176	11
0	16733	140.451256394683	12
0	16763	140.76899945683	10
0	16777	140.8432718318	10
0	16799	141.002392058134	9
0	16801	141.04782081584	10
0	16851	141.531579560746	6
0	16853	141.552721678244	7
0	16867	141.596607095948	7
0	16869	141.598537906467	8
0	16891	141.787149417151	7
0	16893	141.860161619177	8
0	16915	142.007422905431	7
0	16937	142.192431827418	6
0	16947	142.319916972673	6
0	16949	142.366632295319	7
0	16963	142.466984734109	7
0	16973	142.492198701752	7
0	16975	142.528925518502	8
0	16977	142.537321522505	9
0	16991	142.614384628585	9
0	16993	142.623301736812	10
0	16995	142.655401502601	11
0	17005	142.680426830641	11
0	17007	142.681299620272	12
0	17009	142.691837234335	13
0	17011	142.694363346515	14
0	17013	142.725157226073	15
0	17015	142.740739144684	16
0	17017	142.747583032222	17
0	17031	142.819688272664	17
0	17033	142.826473860469	18
0	17035	142.851661338938	19
0	17057	143.045647514897	18
0	17067	143.091770092658	18
0	17069	143.10945816327	19
0	17071	143.115126551386	20
0	17085	143.197152450647	20
0	17107	143.439286115291	19
0	17129	143.587767522696	18
0	17151	143.804008016969	17
0	17153	143.864963935053	18
0	17183	144.09253593336	16
0	17185	144.109184952752	17
0	17187	144.149560243463	18
0	17189	144.171824128667	19
0	17211	144.296625951795	18
0	17213	144.353362763762	19
0	17227	144.409039844906	19
0	17237	144.484167082273	19
0	17239	144.520076650555	20
0	17241	144.563068870829	21
0	17243	144.570370125213	22
0	17265	144.722457715976	21
0	17269	144.777248959746	21
0	17289	144.916287892469	21
0	17291	144.965442428344	22
0	17325	145.227462586032	20
0	17327	145.244944786035	21
0	17329	145.247882780763	22
0	17339	145.290992963485	22
0	17361	145.517033008223	21
0	17363	145.527083560596	22
0	17367	145.576935193787	22
0	17399	145.781808993144	21
0	17421	145.992488205732	20
0	17431	146.102627813563	20
0	17445	146.21999958635	20
0	17447	146.241407805816	21
0	17491	146.678407780959	17
0	17519	146.928623579213	16
0	17533	147.071036680777	16
0	17543	147.157710787844	16
0	17557	147.203052129677	16
0	17559	147.263914065082	17
0	17569	147.333441643181	17
0	17583	147.43626217501	17
0	17593	147.483485049874	17
0	17595	147.512791399653	18
0	17597	147.558190544328	19
0	17611	147.638281412614	19
0	17613	147.668514226419	20
0	17623	147.682659436918	20
0	17625	147.751171444712	21
0	17627	147.773550321926	22
0	17649	147.888038966873	21
0	17651	147.960204841642	22
0	17665	147.992686522107	22
0	17667	148.002944448097	23
0	17671	148.077258013528	23
0	17691	148.268213515378	23
0	17701	148.280699601162	23
0	17703	148.331042212707	24
0	17705	148.348459134818	25
0	17709	148.374996130595	25
0	17721	148.379789850553	26
0	17723	148.467841694384	27
0	17765	148.820965834433	24
0	17775	148.958337760902	24
0	17777	148.958724543221	25
0	17791	149.052626403573	25
0	17793	149.072298472436	26
0	17803	149.158813378328	26
0	17817	149.253712013006	26
0	17819	149.272356976425	27
0	17829	149.280844117529	27
0	17843	149.39679571413	27
0	17865	149.610415106762	26
0	17907	149.986783186115	23
0	17917	150.113944186347	23
0	17931	150.207744997908	23
0	17961	150.547038069372	21
0	17975	150.586844169871	21
0	17977	150.657697777415	22
0	17999	150.819996779122	21
0	18001	150.855721958649	22
0	18023	151.036733059795	21
0	18033	151.116472907378	21
0	18035	151.170135115675	22
0	18069	151.437237613026	20
0	18079	151.490955986735	20
0	18081	151.564511662229	21
0	18115	151.84036779452	19
0	18117	151.87145700083	20
0	18139	151.999536633137	19
0	18161	152.209418475994	18
0	18163	152.212763951907	19
0	18165	152.259272526282	20
0	18175	152.314775698813	20
0	18177	152.314914130074	21
0	18179	152.324774080094	22
0	18181	152.353234098493	23
0	18223	152.737425728839	20
0	18227	152.775732535547	20
0	18239	152.861349151287	21
0	18261	153.057090990511	20
0	18271	153.160283060803	20
0	18285	153.221624867415	20
0	18287	153.266953314496	21
0	18297	153.325757695664	21
0	18311	153.435933887396	21
0	18315	153.476896603404	21
0	18323	153.561723284388	22
0	18345	153.774316341382	21
0	18367	153.92334125005	20
0	18401	154.213432154168	18
0	18423	154.443792841831	17
0	18473	154.925262641804	13
0	18477	154.977065547516	13
0	18489	155.024344901987	14
0	18511	155.25005361615	13
0	18553	155.58862770644	10
0	18555	155.59535740316	11
0	18565	155.752321238621	11
0	18579	155.867991167591	11
0	18601	155.980596447361	10
0	18603	156.006871988355	11
0	18605	156.034961103905	12
0	18615	156.112368308173	12
0	18617	156.136761275159	13
0	18639	156.285057211597	12
0	18641	156.303215133363	13
0	18655	156.440487533946	13
0	18685	156.696566925423	11
0	18699	156.824375554812	11
0	18701	156.85920041823	12
0	18711	156.925150698237	12
0	18725	156.98549857748	12
0	18727	157.007068561608	13
0	18731	157.075182089418	13
0	18739	157.098194666234	14
0	18753	157.248779780542	14
0	18763	157.325452318755	14
0	18785	157.511392975997	13
0	18787	157.568985273284	14
0	18801	157.58395979411	14
0	18831	157.952806991658	12
0	18845	158.008477258068	12
0	18847	158.044262525301	13
0	18869	158.22932108996	12
0	18871	158.237547346507	13
0	18893	158.407940506949	12
0	18903	158.537724163864	12
0	18905	158.548528770551	13
0	18947	158.919127834283	10
0	18949	158.936133543162	11
0	18971	159.088500571196	10
0	18973	159.124769684817	11
0	18975	159.153144695071	12
0	18977	159.16097967518	13
0	18979	159.16470428441	14
0	18993	159.21998421776	14
0	18995	159.272227142095	15
0	19005	159.283613207826	15
0	19027	159.493782566234	14
0	19031	159.577765916373	14
0	19043	159.634328208475	15
0	19045	159.662638391374	16
0	19055	159.69605793287	16
0	19069	159.786799224864	16
0	19091	160.060601554391	15
0	19093	160.073104109275	16
0	19115	160.221061623408	15
0	19157	160.593549060817	12
0	19167	160.687963186024	12
0	19189	160.957616671416	11
0	19191	160.95788473725	12
0	19205	161.007609384234	12
0	19229	161.275708893209	10
0	19237	161.303439646102	11
0	19251	161.415475554378	11
0	19253	161.444296871169	12
0	19255	161.46971733744	13
0	19265	161.535764726868	13
0	19267	161.538271185623	14
0	19269	161.542352635658	15
0	19271	161.543102270103	16
0	19285	161.645185512008	16
0	19315	161.907468064198	14
0	19317	161.959944108605	15
0	19333	162.078084648464	14
0	19341	162.125470806363	15
0	19355	162.247598824054	15
0	19377	162.413338276121	14
0	19387	162.503988403843	14
0	19401	162.627443790821	14
0	19411	162.704497522898	14
0	19445	163.013137236787	12
0	19447	163.073940399363	13
0	19457	163.117317018314	13
0	19471	163.208994405483	13
0	19493	163.436825379764	12
0	19503	163.542980711394	12
0	19525	163.689934042981	11
0	19527	163.736621260727	12
0	19541	163.780848379628	12
0	19551	163.891180909898	12
0	19565	163.988378549206	12
0	19567	164.04942190351	13
0	19577	164.083469722664	13
0	19579	164.092360145154	14
0	19601	164.299825383394	13
0	19603	164.326374887659	14
0	19605	164.338301374657	15
0	19607	164.346788747038	16
0	19609	164.370669602983	17
0	19623	164.409532959606	17
0	19625	164.429748653231	18
0	19635	164.524250452292	18
0	19639	164.575838624545	18
0	19651	164.621666080851	19
0	19661	164.758406652751	19
0	19683	164.887952319144	18
0	19685	164.962798742636	19
0	19701	165.076137568666	18
0	19709	165.143017437083	19
0	19711	165.158646701333	20
0	19713	165.158701313329	21
0	19717	165.177098707692	21
0	19729	165.232507122177	22
0	19731	165.239167635901	23
0	19733	165.245733954419	24
0	19737	165.276431692673	24
0	19745	165.299783063277	25
0	19747	165.342608866158	26
0	19781	165.612014634656	24
0	19783	165.621253386532	25
0	19785	165.64551128242	26
0	19795	165.737699208248	26
0	19817	165.933130085418	25
0	19831	166.058437894818	25
0	19853	166.220838939198	24
0	19855	166.237944121102	25
0	19857	166.255277873225	26
0	19867	166.297153808451	26
0	19881	166.390221164113	26
0	19891	166.520141097356	26
0	19893	166.532432676171	27
0	19907	166.641294293476	27
0	19917	166.771448504321	27
0	19939	166.964178954046	26
0	19953	167.065641629472	26
0	19963	167.1465206421	26
0	19985	167.313619299619	25
0	19987	167.316228696115	26
0	20001	167.381503058169	26
0	20003	167.387405963455	27
0	20025	167.633755426373	26
0	20027	167.642100228129	27
0	20029	167.647161049061	28
0	20039	167.71996333736	28
0	20041	167.754620038273	29
0	20063	167.895313092801	28
0	20077	168.020858159951	28
0	20079	168.024138715423	29
0	20083	168.078285964789	29
0	20091	168.139293043917	30
0	20093	168.158282219663	31
0	20115	168.332463621809	30
0	20117	168.343804094028	31
0	20131	168.454248774527	31
0	20153	168.624261167453	30
0	20163	168.703208826937	30
0	20165	168.767291434087	31
0	20179	168.856161836848	31
0	20201	169.070109589146	30
0	20231	169.29690862823	28
0	20245	169.429067638848	28
0	20255	169.514652560992	28
0	20257	169.567369439962	29
0	20271	169.62215630936	29
0	20273	169.668918717087	30
0	20295	169.790304773393	29
0	20297	169.862797117024	30
0	20307	169.906990435911	30
0	20329	170.126866964878	29
0	20371	170.487732466571	26
0	20385	170.621398570446	26
0	20407	170.827207688211	25
0	20409	170.827724316821	26
0	20411	170.84476205269	27
0	20421	170.963230667755	27
0	20437	171.078471769693	26
0	20465	171.330430785589	25
0	20467	171.333897255845	26
0	20481	171.457841971723	26
0	20503	171.674304689291	25
0	20513	171.693785298943	25
0	20535	171.880123897323	24
0	20537	171.946195406665	25
0	20551	172.01755652199	25
0	20553	172.032675564634	26
0	20555	172.046336450603	27
0	20565	172.090808296099	27
0	20579	172.187955091456	27
0	20601	172.464603108262	26
0	20611	172.491959594487	26
0	20633	172.748751866463	25
0	20647	172.848412794378	25
0	20657	172.881657986536	25
0	20671	172.999991938872	25
0	20673	173.041487597144	26
0	20675	173.052721065209	27
0	20685	173.144403368939	27
0	20699	173.209210404907	27
0	20729	173.539428800152	25
0	20743	173.62751956188	25
0	20745	173.643513122267	26
0	20747	173.672765929559	27
0	20757	173.702460635437	27
0	20759	173.72490135579	28
0	20781	173.931697587306	27
0	20795	174.033268854612	27
0	20805	174.100975025848	27
0	20819	174.243996960674	27
0	20841	174.473221923258	26
0	20851	174.517711770157	26
0	20853	174.53823205199	27
0	20867	174.661640054664	27
0	20877	174.737711714847	27
0	20891	174.826233399312	27
0	20893	174.865725928521	28
0	20915	175.031585267212	27
0	20917	175.069644357143	28
0	20927	175.092469019463	28
0	20929	175.151686499861	29
0	20951	175.310844711169	28
0	20953	175.367597969552	29
0	20967	175.398578183008	29
0	20969	175.442793200201	30
0	20973	175.47821306161	30
0	21001	175.724689075252	29
0	21043	176.107146040896	26
0	21057	176.238727464075	26
0	21059	176.243438047824	27
0	21069	176.373466962027	27
0	21083	176.39450865235	27
0	21085	176.428745493636	28
0	21095	176.502324826337	28
0	21109	176.588530989067	28
0	21111	176.635690561112	29
0	21133	176.786731042981	28
0	21135	176.814451386833	29
0	21145	176.97321431559	29
0	21167	177.088590691927	28
0	21169	177.130831036867	29
0	21183	177.241466343363	29
0	21205	177.388814121028	28
0	21235	177.720520858799	26
0	21249	177.853661293844	26
0	21271	178.064528042033	25
0	21275	178.079785656847	25
0	21337	178.676409226822	20
0	21359	178.877360088492	19
0	21367	178.922441069555	20
0	21381	178.980659174869	20
0	21383	178.985288125461	21
0	21385	179.051921213063	22
0	21395	179.09126945276	22
0	21397	179.150757078349	23
0	21411	179.21945664194	23
0	21421	179.303353970233	23
0	21423	179.322251821905	24
0	21437	179.41931839669	24
0	21439	179.428209832925	25
0	21449	179.497161125117	25
0	21451	179.557442215917	26
0	21473	179.759023962351	25
0	21507	180.028832266646	23
0	21517	180.127647131963	23
0	21531	180.271686292464	23
0	21541	180.323007130587	23
0	21543	180.360329103423	24
0	21557	180.414233054277	24
0	21579	180.633709759156	23
0	21601	180.800225231894	22
0	21611	180.919718045231	22
0	21613	180.962518560277	23
0	21627	181.024758362712	23
0	21629	181.048514917005	24
0	21633	181.07925164428	24
0	21641	181.085373587492	25
0	21643	181.171065897641	26
0	21677	181.379834923954	24
0	21679	181.401513926529	25
0	21701	181.652286160055	24
0	21723	181.787468368662	23
0	21725	181.800265363149	24
0	21749	182.076613007208	22
0	21757	182.117330725262	23
0	21771	182.224996590147	23
0	21773	182.244278889027	24
0	21783	182.373375159586	24
0	21797	182.385693496815	24
0	21799	182.403664602739	25
0	21821	182.633789939342	24
0	21831	182.771711474416	24
0	21835	182.777567359248	24
0	21847	182.846354836396	25
0	21889	183.240015449377	22
0	21891	183.249159314181	23
0	21893	183.25930179252	24
0	21903	183.308150721159	24
0	21925	183.507272285209	23
0	21939	183.638001423709	23
0	21949	183.721589180463	23
0	21963	183.807914034889	23
0	21965	183.853787569023	24
0	21975	183.890371052937	24
0	21977	183.932278133294	25
0	22031	184.381007974417	21
0	22041	184.522627322467	21
0	22055	184.607966391089	21
0	22057	184.645737761643	22
0	22087	184.935687627011	20
0	22101	185.042783131648	20
0	22111	185.12482988844	20
0	22125	185.197671285981	20
0	22135	185.280835581252	20
0	22137	185.347187749745	21
0	22139	185.352440358781	22
0	22173	185.583867848642	20
0	22175	185.594858126161	21
0	22179	185.675746495023	21
0	22187	185.771051837641	22
0	22209	185.946418239374	21
0	22225	186.07795848863	20
0	22245	186.207265682418	20
0	22247	186.235241362657	21
0	22249	186.23917338765	22
0	22279	186.57152960029	20
0	22301	186.71985862012	19
0	22315	186.85504330581	19
0	22319	186.87948899507	19
0	22327	186.906671346971	20
0	22349	187.140130169178	19
0	22363	187.243530751452	19
0	22365	187.247918019247	20
0	22375	187.289432658696	20
0	22377	187.329939981614	21
0	22391	187.459944582532	21
0	22393	187.470450965822	22
0	22403	187.558300514872	22
0	22417	187.622848491975	22
0	22427	187.764175473504	22
0	22449	187.935667783914	21
0	22451	187.964631353707	22
0	22465	188.000040233717	22
0	22487	188.269300220484	21
0	22497	188.285662161835	21
0	22551	188.781865436325	17
0	22553	188.82195305769	18
0	22555	188.839929466507	19
0	22577	189.008065906032	18
0	22587	189.079995583259	18
0	22589	189.095122527763	19
0	22611	189.294248176897	18
0	22613	189.320042699826	19
0	22615	189.362767461457	20
0	22617	189.369901162099	21
0	22631	189.397692466779	21
0	22641	189.520011440834	21
0	22655	189.651340076369	21
0	22665	189.701631318037	21
0	22707	190.081134551409	18
0	22709	190.118362729723	19
0	22723	190.188429833939	19
0	22733	190.315237026324	19
0	22735	190.365065908045	20
0	22749	190.406009839312	20
0	22751	190.455756837054	21
0	22773	190.58586810084	20
0	22783	190.744102165869	20
0	22805	190.912949948671	19
0	22819	191.035388252269	19
0	22821	191.059935200483	20
0	22831	191.098342357653	20
0	22865	191.462613326455	18
0	22907	191.829869284979	15
0	22909	191.847585726071	16
0	22931	192.069760446321	15
0	22941	192.10412798482	15
0	22955	192.22483510091	15
0	22957	192.244655232965	16
0	22967	192.302775963276	16
0	22969	192.345165197308	17
0	22971	192.368395733723	18
0	22985	192.433800089975	18
0	22995	192.54315202769	18
0	23009	192.617003281392	18
0	23019	192.757200976092	18
0	23041	192.94934636969	17
0	23055	193.042000060744	17
0	23077	193.262226905288	16
0	23087	193.330668799444	16
0	23089	193.355528251871	17
0	23091	193.368089286805	18
0	23105	193.465612191048	18
0	23127	193.619198677626	17
0	23129	193.63102029713	18
0	23139	193.698667285117	18
0	23141	193.760095312979	19
0	23163	193.952588896745	18
0	23177	193.991498902585	18
0	23179	194.005980516033	19
0	23181	194.044033487042	20
0	23213	194.379529924978	17
0	23225	194.445420779662	18
0	23235	194.512991011238	18
0	23249	194.643860527211	18
0	23251	194.651370644297	19
0	23253	194.658539866102	20
0	23263	194.691406071869	20
0	23285	194.902745900297	19
0	23307	195.135618489015	18
0	23321	195.268350786264	18
0	23331	195.30900004302	18
0	23333	195.328419140898	19
0	23369	195.679335601812	16
0	23397	195.959287878658	15
0	23411	196.018008415788	15
0	23421	196.088593615299	15
0	23423	196.134329406444	16
0	23517	196.990431232375	8
0	23527	197.146386360547	8
0	23529	197.168358735097	9
0	23543	197.23130452523	9
0	23553	197.307856572614	9
0	23555	197.31571399531	10
0	23557	197.349997967896	11
0	23579	197.526514145853	10
0	23581	197.562779647157	11
0	23603	197.719064802598	10
0	23617	197.808484801619	10
0	23627	197.880843978429	10
0	23649	198.135589103518	9
0	23651	198.136562154111	10
0	23673	198.300173128171	9
0	23675	198.314832707426	10
0	23689	198.443546918007	10
0	23699	198.568023125886	10
0	23713	198.649933580225	10
0	23723	198.739302769399	10
0	23757	198.994790848373	8
0	23767	199.115202964385	8
0	23781	199.183001516556	8
0	23783	199.227776344032	9
0	23805	199.434790577848	8
0	23815	199.534047489633	8
0	23837	199.713613183517	7
0	23839	199.770675459317	8
0	23853	199.794734362093	8
0	23855	199.84814396089	9
0	23877	199.995645792347	8
1	7	0.179687450457	1
1	35	0.779687450457	1
1	40	0.879687450457	1
1	43	0.979687450457	1
1	56	1.079687450457	2
1	67	1.179687450457	2
1	80	1.279687450457	3
1	93	1.379687450457	3
1	108	1.479687450457	4
1	117	1.579687450457	4
1	132	1.679687450457	5
1	141	1.779687450457	5
1	152	1.879687450457	6
1	161	1.979687450457	6
1	178	2.079687450457	7
1	189	2.179687450457	7
1	200	2.279687450457	8
1	211	2.379687450457	8
1	224	2.479687450457	9
1	235	2.579687450457	9
1	248	2.679687450457	10
1	261	2.779687450457	10
1	272	2.879687450457	11
1	281	2.979687450457	11
1	294	3.079687450457	12
1	305	3.179687450457	12
1	322	3.279687450457	13
1	335	3.379687450457	13
1	348	3.479687450457	14
1	359	3.579687450457	14
1	370	3.679687450457	15
1	379	3.779687450457	15
1	390	3.879687450457	16
1	401	3.979687450457	16
1	416	4.079687450457	17
1	425	4.179687450457	17
1	438	4.279687450457	18
1	447	4.379687450457	18
1	460	4.479687450457	19
1	469	4.579687450457	19
1	507	4.939455407298	19
1	519	5.039455407298	19
1	530	5.164150280272	20
1	553	5.325550487761	20
1	567	5.425550487761	20
1	577	5.525550487761	21
1	589	5.625550487761	21
1	602	5.726187367413	22
1	616	5.826187367413	22
1	626	5.926187367413	23
1	642	6.026187367413	23
1	652	6.126187367413	24
1	664	6.226187367413	24
1	672	6.326187367413	25
1	687	6.437671367214	25
1	712	6.579807835223	25
1	722	6.679807835223	26
1	740	6.779807835223	26
1	748	6.879807835223	27
1	762	6.979807835223	27
1	774	7.079807835223	28
1	788	7.179807835223	28
1	804	7.279807835223	29
1	820	7.379807835223	29
1	832	7.479807835223	30
1	846	7.579807835223	30
1	856	7.679807835223	31
1	868	7.779807835223	31
1	876	7.879807835223	32
1	890	7.979807835223	32
1	898	8.079807835223	33
1	912	8.179807835223	33
1	922	8.279807835223	34
1	938	8.379807835223	34
1	948	8.479807835223	35
1	962	8.579807835223	35
1	970	8.679807835223	36
1	984	8.779807835223	36
1	998	8.879807835223	37
1	1010	8.979807835223	37
1	1018	9.079807835223	38
1	1030	9.179807835223	38
1	1040	9.279807835223	39
1	1054	9.379807835223	39
1	1064	9.479807835223	40
1	1080	9.579807835223	40
1	1094	9.679807835223	41
1	1106	9.779807835223	41
1	1118	9.879807835223	42
1	1134	9.979807835223	42
1	1144	10.079807835223	43
1	1162	10.179807835223	43
1	1172	10.279807835223	44
1	1184	10.379807835223	44
1	1192	10.479807835223	45
1	1204	10.579807835223	45
1	1212	10.679807835223	46
1	1226	10.779807835223	46
1	1234	10.879807835223	47
1	1246	10.979807835223	47
1	1258	11.079807835223	48
1	1274	11.179807835223	48
1	1284	11.279807835223	49
1	1298	11.379807835223	49
1	1306	11.479807835223	50
1	1318	11.579807835223	50
1	1326	11.679807835223	51
1	1338	11.779807835223	51
1	1348	11.879807835223	52
1	1362	11.979807835223	52
1	1374	12.079807835223	53
1	1390	12.179807835223	53
1	1402	12.279807835223	54
1	1418	12.379807835223	54
1	1430	12.479807835223	55
1	1444	12.579807835223	55
1	1456	12.679807835223	56
1	1470	12.779807835223	56
1	1482	12.879807835223	57
1	1494	12.979807835223	57
1	1502	13.079807835223	58
1	1516	13.179807835223	58
1	1526	13.279807835223	59
1	1540	13.379807835223	59
1	1548	13.479807835223	60
1	1566	13.579807835223	60
1	1576	13.679807835223	61
1	1590	13.779807835223	61
1	1598	13.879807835223	62
1	1614	13.979807835223	62
1	1622	14.079807835223	63
1	1634	14.179807835223	63
1	1644	14.279807835223	64
1	1656	14.379807835223	64
1	1664	14.479807835223	65
1	1676	14.579807835223	65
1	1686	14.679807835223	66
1	1698	14.779807835223	66
1	1708	14.879807835223	67
1	1724	14.979807835223	67
1	1732	15.079807835223	68
1	1744	15.179807835223	68
1	1752	15.279807835223	69
1	1768	15.379807835223	69
1	1778	15.479807835223	70
1	1792	15.579807835223	70
1	1806	15.679807835223	71
1	1822	15.779807835223	71
1	1830	15.879807835223	72
1	1842	15.979807835223	72
1	1850	16.079807835223	73
1	1866	16.179807835223	73
1	1878	16.279807835223	74
1	1894	16.379807835223	74
1	1906	16.479807835223	75
1	1918	16.579807835223	75
1	1928	16.679807835223	76
1	1942	16.779807835223	76
1	1950	16.879807835223	77
1	1964	16.979807835223	77
1	1976	17.079807835223	78
1	1990	17.179807835223	78
1	2000	17.279807835223	79
1	2014	17.379807835223	79
1	2022	17.479807835223	80
1	2038	17.579807835223	80
1	2050	17.679807835223	81
1	2062	17.779807835223	81
1	2070	17.879807835223	82
1	2086	17.979807835223	82
1	2094	18.079807835223	83
1	2108	18.179807835223	83
1	2120	18.279807835223	84
1	2132	18.379807835223	84
1	2140	18.479807835223	85
1	2156	18.579807835223	85
1	2168	18.679807835223	86
1	2182	18.779807835223	86
1	2190	18.879807835223	87
1	2206	18.979807835223	87
1	2216	19.079807835223	88
1	2230	19.179807835223	88
1	2238	19.279807835223	89
1	2254	19.379807835223	89
1	2268	19.479807835223	90
1	2282	19.579807835223	90
1	2296	19.679807835223	91
1	2308	19.779807835223	91
1	2318	19.879807835223	92
1	2336	19.979807835223	92
1	2346	20.079807835223	93
1	2362	20.179807835223	93
1	2372	20.279807835223	94
1	2384	20.379807835223	94
1	2396	20.479807835223	95
1	2408	20.579807835223	95
1	2416	20.679807835223	96
1	2430	20.779807835223	96
1	2442	20.879807835223	97
1	2456	20.979807835223	97
1	2466	21.079807835223	98
1	2480	21.179807835223	98
1	2490	21.279807835223	99
1	2502	21.379807835223	99
1	2512	21.479807835223	100
1	2526	21.579807835223	100
1	2538	21.679807835223	101
1	2550	21.779807835223	101
1	2560	21.879807835223	102
1	2572	21.979807835223	102
1	2580	22.079807835223	103
1	2594	22.179807835223	103
1	2604	22.279807835223	104
1	2618	22.379807835223	104
1	2628	22.479807835223	105
1	2640	22.579807835223	105
1	2650	22.679807835223	106
1	2662	22.779807835223	106
1	2670	22.879807835223	107
1	2684	22.979807835223	107
1	2692	23.079807835223	108
1	2710	23.179807835223	108
1	2720	23.279807835223	109
1	2732	23.379807835223	109
1	2742	23.479807835223	110
1	2758	23.579807835223	110
1	2768	23.679807835223	111
1	2780	23.779807835223	111
1	2790	23.879807835223	112
1	2804	23.979807835223	112
1	2816	24.079807835223	113
1	2828	24.179807835223	113
1	2838	24.279807835223	114
1	2850	24.379807835223	114
1	2858	24.479807835223	115
1	2872	24.579807835223	115
1	2880	24.679807835223	116
1	2894	24.779807835223	116
1	2904	24.879807835223	117
1	2918	24.979807835223	117
1	2928	25.079807835223	118
1	2944	25.179807835223	118
1	2952	25.279807835223	119
1	2964	25.379807835223	119
1	2987	25.581170808601	119
1	2999	25.681170808601	120
1	3013	25.781170808601	120
1	3023	25.881170808601	121
1	3041	25.981170808601	121
1	3053	26.081170808601	122
1	3065	26.181170808601	122
1	3075	26.281170808601	123
1	3093	26.381170808601	123
1	3103	26.481170808601	124
1	3117	26.581170808601	124
1	3127	26.681170808601	125
1	3141	26.781170808601	125
1	3149	26.881170808601	126
1	3167	26.981170808601	126
1	3181	27.081170808601	127
1	3195	27.181170808601	127
1	3205	27.281170808601	128
1	3223	27.381170808601	128
1	3231	27.481170808601	129
1	3245	27.581170808601	129
1	3253	27.681170808601	130
1	3265	27.781170808601	130
1	3275	27.881170808601	131
1	3291	27.981170808601	131
1	3303	28.081170808601	132
1	3315	28.181170808601	132
1	3323	28.281170808601	133
1	3343	28.381170808601	133
1	3353	28.481170808601	134
1	3365	28.581170808601	134
1	3373	28.681170808601	135
1	3385	28.781170808601	135
1	3395	28.881170808601	136
1	3407	28.981170808601	136
1	3419	29.081170808601	137
1	3431	29.181170808601	137
1	3441	29.281170808601	138
1	3455	29.381170808601	138
1	3465	29.481170808601	139
1	3483	29.581170808601	139
1	3491	29.681170808601	140
1	3505	29.781170808601	140
1	3515	29.881170808601	141
1	3529	29.981170808601	141
1	3539	30.081170808601	142
1	3551	30.181170808601	142
1	3559	30.281170808601	143
1	3571	30.381170808601	143
1	3579	30.481170808601	144
1	3591	30.581170808601	144
1	3599	30.681170808601	145
1	3613	30.781170808601	145
1	3623	30.881170808601	146
1	3637	30.981170808601	146
1	3645	31.081170808601	147
1	3659	31.181170808601	147
1	3667	31.281170808601	148
1	3688	31.422516925743	148
1	3698	31.522516925743	149
1	3714	31.622516925743	149
1	3724	31.722516925743	150
1	3736	31.822516925743	150
1	3746	31.922516925743	151
1	3758	32.022516925743	151
1	3768	32.122516925743	152
1	3780	32.222516925743	152
1	3792	32.322516925743	153
1	3808	32.422516925743	153
1	3822	32.522516925743	154
1	3834	32.622516925743	154
1	3842	32.722516925743	155
1	3854	32.822516925743	155
1	3864	32.922516925743	156
1	3878	33.022516925743	156
1	3890	33.122516925743	157
1	3904	33.222516925743	157
1	3916	33.322516925743	158
1	3928	33.422516925743	158
1	3938	33.522516925743	159
1	3952	33.622516925743	159
1	3960	33.722516925743	160
1	3972	33.822516925743	160
1	3984	33.922516925743	161
1	3996	34.022516925743	161
1	4010	34.122516925743	162
1	4022	34.222516925743	162
1	4034	34.322516925743	163
1	4046	34.422516925743	163
1	4054	34.522516925743	164
1	4068	34.622516925743	164
1	4076	34.722516925743	165
1	4091	34.830187006073	165
1	4106	34.968816141275	166
1	4120	35.068816141275	166
1	4140	35.168816141275	167
1	4154	35.268816141275	167
1	4164	35.368816141275	168
1	4180	35.468816141275	168
1	4188	35.568816141275	169
1	4202	35.668816141275	169
1	4212	35.768816141275	170
1	4224	35.868816141275	170
1	4234	35.968816141275	171
1	4246	36.068816141275	171
1	4254	36.168816141275	172
1	4268	36.268816141275	172
1	4278	36.368816141275	173
1	4292	36.468816141275	173
1	4304	36.568816141275	174
1	4316	36.668816141275	174
1	4328	36.768816141275	175
1	4342	36.868816141275	175
1	4356	36.968816141275	176
1	4368	37.068816141275	176
1	4380	37.168816141275	177
1	4392	37.268816141275	177
1	4400	37.368816141275	178
1	4412	37.468816141275	178
1	4420	37.568816141275	179
1	4434	37.668816141275	179
1	4442	37.768816141275	180
1	4454	37.868816141275	180
1	4466	37.968816141275	181
1	4480	38.068816141275	181
1	4490	38.168816141275	182
1	4504	38.268816141275	182
1	4512	38.368816141275	183
1	4526	38.468816141275	183
1	4536	38.568816141275	184
1	4550	38.668816141275	184
1	4560	38.768816141275	185
1	4572	38.868816141275	185
1	4611	39.181753423165	184
1	4625	39.281753423165	185
1	4645	39.381753423165	185
1	4653	39.481753423165	186
1	4665	39.581753423165	186
1	4675	39.681753423165	187
1	4689	39.781753423165	187
1	4699	39.881753423165	188
1	4713	39.981753423165	188
1	4723	40.081753423165	189
1	4735	40.181753423165	189
1	4743	40.281753423165	190
1	4759	40.381753423165	190
1	4767	40.481753423165	191
1	4789	40.581753423165	191
1	4801	40.681753423165	192
1	4815	40.781753423165	192
1	4823	40.881753423165	193
1	4837	40.981753423165	193
1	4847	41.081753423165	194
1	4859	41.181753423165	194
1	4867	41.281753423165	195
1	4879	41.381753423165	195
1	4891	41.481753423165	196
1	4907	41.581753423165	196
1	4919	41.681753423165	197
1	4931	41.781753423165	197
1	4943	41.881753423165	198
1	4955	41.981753423165	198
1	4965	42.081753423165	199
1	4981	42.181753423165	199
1	4991	42.281753423165	200
1	5005	42.381753423165	200
1	5029	42.581753423165	200
1	5051	42.781753423165	200
1	5073	42.981753423165	200
1	5093	43.181753423165	200
1	5115	43.381753423165	200
1	5141	43.581753423165	200
1	5163	43.781753423165	200
1	5193	43.981753423165	200
1	5215	44.181753423165	200
1	5239	44.381753423165	200
1	5263	44.581753423165	200
1	5287	44.781753423165	200
1	5309	44.981753423165	200
1	5337	45.181753423165	200
1	5359	45.381753423165	200
1	5385	45.581753423165	200
1	5407	45.781753423165	200
1	5431	45.981753423165	200
1	5453	46.181753423165	200
1	5477	46.381753423165	200
1	5503	46.581753423165	200
1	5525	46.781753423165	200
1	5545	46.981753423165	200
1	5572	47.224122061063	200
1	5607	47.493711538692	200
1	5619	47.593711538692	200
1	5639	47.793711538692	200
1	5668	48.000351525779	200
1	5696	48.200351525779	200
1	5720	48.400351525779	200
1	5750	48.600351525779	200
1	5772	48.800351525779	200
1	5794	49.000351525779	200
1	5820	49.200351525779	200
1	5844	49.400351525779	200
1	5872	49.600351525779	200
1	5898	49.800351525779	200
1	5920	50.000351525779	200
1	5950	50.200351525779	200
1	5978	50.400351525779	200
1	5998	50.600351525779	200
1	6022	50.800351525779	200
1	6046	51.000351525779	200
1	6070	51.200351525779	200
1	6096	51.400351525779	200
1	6120	51.600351525779	200
1	6142	51.800351525779	200
1	6166	52.000351525779	200
1	6190	52.200351525779	200
1	6224	52.400351525779	200
1	6246	52.600351525779	200
1	6270	52.800351525779	200
1	6292	53.000351525779	200
1	6316	53.200351525779	200
1	6336	53.400351525779	200
1	6356	53.600351525779	200
1	6382	53.800351525779	200
1	6410	54.000351525779	200
1	6434	54.200351525779	200
1	6454	54.400351525779	200
1	6476	54.600351525779	200
1	6498	54.800351525779	200
1	6526	55.000351525779	200
1	6546	55.200351525779	200
1	6570	55.400351525779	200
1	6592	55.600351525779	200
1	6614	55.800351525779	200
1	6638	56.000351525779	200
1	6658	56.200351525779	200
1	6682	56.400351525779	200
1	6704	56.600351525779	200
1	6728	56.800351525779	200
1	6750	57.000351525779	200
1	6776	57.200351525779	200
1	6798	57.400351525779	200
1	6822	57.600351525779	200
1	6846	57.800351525779	200
1	6868	58.000351525779	200
1	6890	58.200351525779	200
1	6912	58.400351525779	200
1	6939	58.608510483143	200
1	6978	59.076945751062	199
1	7023	59.497131693687	198
1	7035	59.597131693687	198
1	7050	59.702278997619	199
1	7064	59.802278997619	199
1	7076	59.902278997619	200
1	7094	60.002278997619	200
1	7118	60.202278997619	200
1	7148	60.402278997619	200
1	7168	60.602278997619	200
1	7192	60.802278997619	200
1	7214	61.002278997619	200
1	7238	61.202278997619	200
1	7258	61.402278997619	200
1	7282	61.602278997619	200
1	7302	61.802278997619	200
1	7326	62.002278997619	200
1	7357	62.323686714201	200
1	7369	62.423686714201	200
1	7402	62.625425847562	200
1	7426	62.825425847562	200
1	7448	63.025425847562	200
1	7476	63.225425847562	200
1	7496	63.425425847562	200
1	7524	63.625425847562	200
1	7548	63.825425847562	200
1	7572	64.025425847562	200
1	7600	64.225425847562	200
1	7624	64.425425847562	200
1	7650	64.625425847562	200
1	7674	64.825425847562	200
1	7696	65.025425847562	200
1	7718	65.225425847562	200
1	7742	65.425425847562	200
1	7776	65.625425847562	200
1	7804	65.825425847562	200
1	7830	66.025425847562	200
1	7854	66.225425847562	200
1	7876	66.425425847562	200
1	7902	66.625425847562	200
1	7928	66.825425847562	200
1	7950	67.025425847562	200
1	7978	67.225425847562	200
1	8002	67.425425847562	200
1	8024	67.625425847562	200
1	8048	67.825425847562	200
1	8078	68.025425847562	200
1	8104	68.225425847562	200
1	8128	68.425425847562	200
1	8154	68.625425847562	200
1	8176	68.825425847562	200
1	8200	69.025425847562	200
1	8224	69.225425847562	200
1	8252	69.425425847562	200
1	8272	69.625425847562	200
1	8298	69.825425847562	200
1	8322	70.025425847562	200
1	8346	70.225425847562	200
1	8372	70.425425847562	200
1	8396	70.625425847562	200
1	8422	70.825425847562	200
1	8448	71.025425847562	200
1	8476	71.225425847562	200
1	8502	71.425425847562	200
1	8524	71.625425847562	200
1	8550	71.825425847562	200
1	8574	72.025425847562	200
1	8600	72.225425847562	200
1	8622	72.425425847562	200
1	8646	72.625425847562	200
1	8668	72.825425847562	200
1	8692	73.025425847562	200
1	8716	73.225425847562	200
1	8738	73.425425847562	200
1	8762	73.625425847562	200
1	8788	73.825425847562	200
1	8812	74.025425847562	200
1	8838	74.225425847562	200
1	8860	74.425425847562	200
1	8884	74.625425847562	200
1	8912	74.825425847562	200
1	8934	75.025425847562	200
1	8958	75.225425847562	200
1	8984	75.425425847562	200
1	9004	75.625425847562	200
1	9026	75.825425847562	200
1	9050	76.025425847562	200
1	9074	76.225425847562	200
1	9096	76.425425847562	200
1	9120	76.625425847562	200
1	9142	76.825425847562	200
1	9166	77.025425847562	200
1	9188	77.225425847562	200
1	9208	77.425425847562	200
1	9228	77.625425847562	200
1	9250	77.825425847562	200
1	9280	78.025425847562	200
1	9304	78.225425847562	200
1	9326	78.425425847562	200
1	9348	78.625425847562	200
1	9374	78.825425847562	200
1	9398	79.025425847562	200
1	9420	79.225425847562	200
1	9446	79.425425847562	200
1	9466	79.625425847562	200
1	9496	79.825425847562	200
1	9524	80.025425847562	200
1	9548	80.225425847562	200
1	9570	80.425425847562	200
1	9592	80.625425847562	200
1	9618	80.825425847562	200
1	9638	81.025425847562	200
1	9662	81.225425847562	200
1	9696	81.425425847562	200
1	9720	81.625425847562	200
1	9748	81.825425847562	200
1	9772	82.025425847562	200
1	9804	82.225425847562	200
1	9828	82.425425847562	200
1	9860	82.625425847562	200
1	9880	82.825425847562	200
1	9902	83.025425847562	200
1	9926	83.225425847562	200
1	9946	83.425425847562	200
1	9970	83.625425847562	200
1	9990	83.825425847562	200
1	10014	84.025425847562	200
1	10040	84.225425847562	200
1	10064	84.425425847562	200
1	10088	84.625425847562	200
1	10110	84.825425847562	200
1	10130	85.025425847562	200
1	10156	85.225425847562	200
1	10180	85.425425847562	200
1	10206	85.625425847562	200
1	10230	85.825425847562	200
1	10256	86.025425847562	200
1	10280	86.225425847562	200
1	10302	86.425425847562	200
1	10324	86.625425847562	200
1	10350	86.825425847562	200
1	10376	87.025425847562	200
1	10398	87.225425847562	200
1	10422	87.425425847562	200
1	10448	87.625425847562	200
1	10468	87.825425847562	200
1	10490	88.025425847562	200
1	10514	88.225425847562	200
1	10536	88.425425847562	200
1	10564	88.625425847562	200
1	10588	88.825425847562	200
1	10610	89.025425847562	200
1	10634	89.225425847562	200
1	10654	89.425425847562	200
1	10676	89.625425847562	200
1	10698	89.825425847562	200
1	10720	90.025425847562	200
1	10742	90.225425847562	200
1	10764	90.425425847562	200
1	10788	90.625425847562	200
1	10810	90.825425847562	200
1	10830	91.025425847562	200
1	10860	91.225425847562	200
1	10882	91.425425847562	200
1	10904	91.625425847562	200
1	10926	91.825425847562	200
1	10952	92.025425847562	200
1	10976	92.225425847562	200
1	11000	92.425425847562	200
1	11022	92.625425847562	200
1	11050	92.825425847562	200
1	11078	93.025425847562	200
1	11100	93.225425847562	200
1	11126	93.425425847562	200
1	11154	93.625425847562	200
1	11176	93.825425847562	200
1	11198	94.025425847562	200
1	11224	94.225425847562	200
1	11250	94.425425847562	200
1	11270	94.625425847562	200
1	11296	94.825425847562	200
1	11318	95.025425847562	200
1	11342	95.225425847562	200
1	11362	95.425425847562	200
1	11390	95.625425847562	200
1	11414	95.825425847562	200
1	11434	96.025425847562	200
1	11458	96.225425847562	200
1	11478	96.425425847562	200
1	11498	96.625425847562	200
1	11524	96.825425847562	200
1	11548	97.025425847562	200
1	11576	97.225425847562	200
1	11600	97.425425847562	200
1	11630	97.625425847562	200
1	11652	97.825425847562	200
1	11674	98.025425847562	200
1	11698	98.225425847562	200
1	11718	98.425425847562	200
1	11742	98.625425847562	200
1	11764	98.825425847562	200
1	11786	99.025425847562	200
1	11814	99.225425847562	200
1	11836	99.425425847562	200
1	11862	99.625425847562	200
1	11884	99.825425847562	200
1	11904	100.025425847562	200
1	11932	100.225425847562	200
1	11952	100.425425847562	200
1	11980	100.625425847562	200
1	12002	100.825425847562	200
1	12026	101.025425847562	200
1	12052	101.225425847562	200
1	12078	101.425425847562	200
1	12100	101.625425847562	200
1	12126	101.825425847562	200
1	12148	102.025425847562	200
1	12168	102.225425847562	200
1	12190	102.425425847562	200
1	12216	102.625425847562	200
1	12240	102.825425847562	200
1	12264	103.025425847562	200
1	12290	103.225425847562	200
1	12314	103.425425847562	200
1	12338	103.625425847562	200
1	12364	103.825425847562	200
1	12384	104.025425847562	200
1	12408	104.225425847562	200
1	12428	104.425425847562	200
1	12456	104.625425847562	200
1	12478	104.825425847562	200
1	12502	105.025425847562	200
1	12526	105.225425847562	200
1	12552	105.425425847562	200
1	12578	105.625425847562	200
1	12606	105.825425847562	200
1	12634	106.025425847562	200
1	12654	106.225425847562	200
1	12682	106.425425847562	200
1	12712	106.625425847562	200
1	12734	106.825425847562	200
1	12760	107.025425847562	200
1	12780	107.225425847562	200
1	12808	107.425425847562	200
1	12834	107.625425847562	200
1	12858	107.825425847562	200
1	12882	108.025425847562	200
1	12902	108.225425847562	200
1	12930	108.425425847562	200
1	12956	108.625425847562	200
1	12976	108.825425847562	200
1	12998	109.025425847562	200
1	13020	109.225425847562	200
1	13042	109.425425847562	200
1	13064	109.625425847562	200
1	13088	109.825425847562	200
1	13110	110.025425847562	200
1	13134	110.225425847562	200
1	13158	110.425425847562	200
1	13186	110.625425847562	200
1	13208	110.825425847562	200
1	13230	111.025425847562	200
1	13256	111.225425847562	200
1	13276	111.425425847562	200
1	13296	111.625425847562	200
1	13322	111.825425847562	200
1	13344	112.025425847562	200
1	13372	112.225425847562	200
1	13396	112.425425847562	200
1	13420	112.625425847562	200
1	13442	112.825425847562	200
1	13464	113.025425847562	200
1	13486	113.225425847562	200
1	13514	113.425425847562	200
1	13534	113.625425847562	200
1	13556	113.825425847562	200
1	13578	114.025425847562	200
1	13602	114.225425847562	200
1	13626	114.425425847562	200
1	13650	114.625425847562	200
1	13674	114.825425847562	200
1	13696	115.025425847562	200
1	13718	115.225425847562	200
1	13742	115.425425847562	200
1	13762	115.625425847562	200
1	13786	115.825425847562	200
1	13818	116.025425847562	200
1	13842	116.225425847562	200
1	13864	116.425425847562	200
1	13888	116.625425847562	200
1	13914	116.825425847562	200
1	13934	117.025425847562	200
1	13962	117.225425847562	200
1	13982	117.425425847562	200
1	14010	117.625425847562	200
1	14036	117.825425847562	200
1	14062	118.025425847562	200
1	14084	118.225425847562	200
1	14108	118.425425847562	200
1	14136	118.625425847562	200
1	14162	118.825425847562	200
1	14186	119.025425847562	200
1	14210	119.225425847562	200
1	14230	119.425425847562	200
1	14256	119.625425847562	200
1	14280	119.825425847562	200
1	14306	120.025425847562	200
1	14326	120.225425847562	200
1	14346	120.425425847562	200
1	14372	120.625425847562	200
1	14396	120.825425847562	200
1	14422	121.025425847562	200
1	14442	121.225425847562	200
1	14464	121.425425847562	200
1	14486	121.625425847562	200
1	14514	121.825425847562	200
1	14540	122.025425847562	200
1	14560	122.225425847562	200
1	14588	122.425425847562	200
1	14614	122.625425847562	200
1	14636	122.825425847562	200
1	14662	123.025425847562	200
1	14684	123.225425847562	200
1	14708	123.425425847562	200
1	14734	123.625425847562	200
1	14754	123.825425847562	200
1	14780	124.025425847562	200
1	14808	124.225425847562	200
1	14832	124.425425847562	200
1	14854	124.625425847562	200
1	14882	124.825425847562	200
1	14902	125.025425847562	200
1	14922	125.225425847562	200
1	14942	125.425425847562	200
1	14964	125.625425847562	200
1	14984	125.825425847562	200
1	15008	126.025425847562	200
1	15032	126.225425847562	200
1	15052	126.425425847562	200
1	15076	126.625425847562	200
1	15100	126.825425847562	200
1	15122	127.025425847562	200
1	15151	127.317216006624	200
1	15163	127.417216006624	200
1	15184	127.620782151681	200
1	15211	127.935281906951	200
1	15234	128.079912664167	200
1	15250	128.179912664167	200
1	15282	128.379912664167	200
1	15312	128.579912664167	200
1	15334	128.779912664167	200
1	15358	128.979912664167	200
1	15378	129.179912664167	200
1	15408	129.379912664167	200
1	15432	129.579912664167	200
1	15452	129.779912664167	200
1	15476	129.979912664167	200
1	15496	130.179912664167	200
1	15518	130.379912664167	200
1	15542	130.579912664167	200
1	15564	130.779912664167	200
1	15586	130.979912664167	200
1	15606	131.179912664167	200
1	15640	131.540573336463	200
1	15652	131.640573336463	200
1	15681	131.843459767573	200
1	15707	132.043459767573	200
1	15729	132.243459767573	200
1	15751	132.443459767573	200
1	15782	132.64640130489	200
1	15806	132.84640130489	200
1	15834	133.04640130489	200
1	15854	133.24640130489	200
1	15876	133.44640130489	200
1	15898	133.64640130489	200
1	15924	133.84640130489	200
1	15952	134.04640130489	200
1	15976	134.24640130489	200
1	15996	134.44640130489	200
1	16018	134.64640130489	200
1	16038	134.84640130489	200
1	16065	135.074681545182	200
1	16095	135.274681545182	200
1	16125	135.474681545182	200
1	16151	135.674681545182	200
1	16173	135.874681545182	200
1	16197	136.074681545182	200
1	16227	136.274681545182	200
1	16251	136.474681545182	200
1	16277	136.674681545182	200
1	16299	136.874681545182	200
1	16321	137.074681545182	200
1	16345	137.274681545182	200
1	16369	137.474681545182	200
1	16395	137.674681545182	200
1	16419	137.874681545182	200
1	16447	138.074681545182	200
1	16473	138.274681545182	200
1	16499	138.474681545182	200
1	16525	138.674681545182	200
1	16549	138.874681545182	200
1	16573	139.074681545182	200
1	16595	139.274681545182	200
1	16615	139.474681545182	200
1	16641	139.674681545182	200
1	16663	139.874681545182	200
1	16689	140.074681545182	200
1	16711	140.274681545182	200
1	16735	140.474681545182	200
1	16755	140.674681545182	200
1	16779	140.874681545182	200
1	16803	141.074681545182	200
1	16823	141.274681545182	200
1	16843	141.474681545182	200
1	16871	141.674681545182	200
1	16895	141.874681545182	200
1	16917	142.074681545182	200
1	16939	142.274681545182	200
1	16965	142.474681545182	200
1	16997	142.674681545182	200
1	17037	142.874681545182	200
1	17059	143.074681545182	200
1	17087	143.274681545182	200
1	17109	143.474681545182	200
1	17131	143.674681545182	200
1	17155	143.874681545182	200
1	17175	144.074681545182	200
1	17203	144.274681545182	200
1	17229	144.474681545182	200
1	17257	144.674681545182	200
1	17281	144.874681545182	200
1	17305	145.074681545182	200
1	17331	145.274681545182	200
1	17353	145.474681545182	200
1	17379	145.674681545182	200
1	17401	145.874681545182	200
1	17423	146.074681545182	200
1	17449	146.274681545182	200
1	17469	146.474681545182	200
1	17489	146.674681545182	200
1	17511	146.874681545182	200
1	17535	147.074681545182	200
1	17561	147.274681545182	200
1	17585	147.474681545182	200
1	17615	147.674681545182	200
1	17641	147.874681545182	200
1	17669	148.074681545182	200
1	17693	148.274681545182	200
1	17725	148.474681545182	200
1	17745	148.674681545182	200
1	17767	148.874681545182	200
1	17795	149.074681545182	200
1	17821	149.274681545182	200
1	17845	149.474681545182	200
1	17867	149.674681545182	200
1	17887	149.874681545182	200
1	17909	150.074681545182	200
1	17933	150.274681545182	200
1	17953	150.474681545182	200
1	17979	150.674681545182	200
1	18003	150.874681545182	200
1	18025	151.074681545182	200
1	18049	151.274681545182	200
1	18071	151.474681545182	200
1	18095	151.674681545182	200
1	18119	151.874681545182	200
1	18141	152.074681545182	200
1	18167	152.274681545182	200
1	18195	152.474681545182	200
1	18215	152.674681545182	200
1	18241	152.874681545182	200
1	18263	153.074681545182	200
1	18289	153.274681545182	200
1	18313	153.474681545182	200
1	18337	153.674681545182	200
1	18359	153.874681545182	200
1	18381	154.074681545182	200
1	18403	154.274681545182	200
1	18425	154.474681545182	200
1	18445	154.674681545182	200
1	18465	154.874681545182	200
1	18491	155.074681545182	200
1	18513	155.274681545182	200
1	18533	155.474681545182	200
1	18557	155.674681545182	200
1	18581	155.874681545182	200
1	18607	156.074681545182	200
1	18631	156.274681545182	200
1	18657	156.474681545182	200
1	18677	156.674681545182	200
[...]
5	5395	45.681753423165	1
5	5417	45.881753423165	1
5	5441	46.081753423165	1
5	5461	46.281753423165	1
5	5485	46.481753423165	1
5	5511	46.681753423165	1
5	5533	46.881753423165	1
5	5558	47.124122061063	1
5	5580	47.324122061063	1
5	5627	47.693711538692	1
5	5652	47.900351525779	1
5	5680	48.100351525779	1
5	5706	48.300351525779	1
5	5730	48.500351525779	1
5	5760	48.700351525779	1
5	5782	48.900351525779	1
5	5804	49.100351525779	1
5	5830	49.300351525779	1
5	5858	49.500351525779	1
5	5882	49.700351525779	1
5	5908	49.900351525779	1
5	5932	50.100351525779	1
5	5964	50.300351525779	1
5	5986	50.500351525779	1
5	6010	50.700351525779	1
5	6032	50.900351525779	1
5	6056	51.100351525779	1
5	6078	51.300351525779	1
5	6104	51.500351525779	1
5	6128	51.700351525779	1
5	6154	51.900351525779	1
5	6174	52.100351525779	1
5	6204	52.300351525779	1
5	6234	52.500351525779	1
5	6254	52.700351525779	1
5	6280	52.900351525779	1
5	6302	53.100351525779	1
5	6324	53.300351525779	1
5	6344	53.500351525779	1
5	6368	53.700351525779	1
5	6396	53.900351525779	1
5	6422	54.100351525779	1
5	6442	54.300351525779	1
5	6464	54.500351525779	1
5	6486	54.700351525779	1
5	6508	54.900351525779	1
5	6534	55.100351525779	1
5	6554	55.300351525779	1
5	6580	55.500351525779	1
5	6602	55.700351525779	1
5	6622	55.900351525779	1
5	6646	56.100351525779	1
5	6668	56.300351525779	1
5	6690	56.500351525779	1
5	6714	56.700351525779	1
5	6738	56.900351525779	1
5	6760	57.100351525779	1
5	6784	57.300351525779	1
5	6806	57.500351525779	1
5	6832	57.700351525779	1
5	6856	57.900351525779	1
5	6876	58.100351525779	1
5	6900	58.300351525779	1
5	6925	58.508510483143	1
5	6947	58.708510483143	1
5	7102	60.102278997619	1
5	7130	60.302278997619	1
5	7156	60.502278997619	1
5	7176	60.702278997619	1
5	7202	60.902278997619	1
5	7224	61.102278997619	1
5	7246	61.302278997619	1
5	7268	61.502278997619	1
5	7290	61.702278997619	1
5	7312	61.902278997619	1
5	7334	62.102278997619	1
5	7384	62.525425847562	1
5	7412	62.725425847562	1
5	7436	62.925425847562	1
5	7460	63.125425847562	1
5	7484	63.325425847562	1
5	7506	63.525425847562	1
5	7534	63.725425847562	1
5	7560	63.925425847562	1
5	7586	64.125425847562	1
5	7610	64.325425847562	1
5	7634	64.525425847562	1
5	7660	64.725425847562	1
5	7684	64.925425847562	1
5	7706	65.125425847562	1
5	7730	65.325425847562	1
5	7760	65.525425847562	1
5	7788	65.725425847562	1
5	7814	65.925425847562	1
5	7840	66.125425847562	1
5	7864	66.325425847562	1
5	7888	66.525425847562	1
5	7912	66.725425847562	1
5	7938	66.925425847562	1
5	7964	67.125425847562	1
5	7990	67.325425847562	1
5	8012	67.525425847562	1
5	8034	67.725425847562	1
5	8058	67.925425847562	1
5	8090	68.125425847562	1
5	8112	68.325425847562	1
5	8140	68.525425847562	1
5	8164	68.725425847562	1
5	8188	68.925425847562	1
5	8210	69.125425847562	1
5	8236	69.325425847562	1
5	8260	69.525425847562	1
5	8284	69.725425847562	1
5	8310	69.925425847562	1
5	8330	70.125425847562	1
5	8356	70.325425847562	1
5	8380	70.525425847562	1
5	8406	70.725425847562	1
5	8434	70.925425847562	1
5	8460	71.125425847562	1
5	8490	71.325425847562	1
5	8510	71.525425847562	1
5	8538	71.725425847562	1
5	8560	71.925425847562	1
5	8586	72.125425847562	1
5	8608	72.325425847562	1
5	8630	72.525425847562	1
5	8656	72.725425847562	1
5	8678	72.925425847562	1
5	8700	73.125425847562	1
5	8726	73.325425847562	1
5	8750	73.525425847562	1
5	8774	73.725425847562	1
5	8798	73.925425847562	1
5	8822	74.125425847562	1
5	8848	74.325425847562	1
5	8872	74.525425847562	1
5	8898	74.725425847562	1
5	8922	74.925425847562	1
5	8942	75.125425847562	1
5	8970	75.325425847562	1
5	8992	75.525425847562	1
5	9014	75.725425847562	1
5	9036	75.925425847562	1
5	9062	76.125425847562	1
5	9082	76.325425847562	1
5	9106	76.525425847562	1
5	9128	76.725425847562	1
5	9152	76.925425847562	1
5	9174	77.125425847562	1
5	9196	77.325425847562	1
5	9216	77.525425847562	1
5	9238	77.725425847562	1
5	9266	77.925425847562	1
5	9292	78.125425847562	1
5	9312	78.325425847562	1
5	9336	78.525425847562	1
5	9358	78.725425847562	1
5	9384	78.925425847562	1
5	9406	79.125425847562	1
5	9432	79.325425847562	1
5	9454	79.525425847562	1
5	9480	79.725425847562	1
5	9508	79.925425847562	1
5	9532	80.125425847562	1
5	9558	80.325425847562	1
5	9578	80.525425847562	1
5	9604	80.725425847562	1
5	9626	80.925425847562	1
5	9650	81.125425847562	1
5	9674	81.325425847562	1
5	9706	81.525425847562	1
5	9728	81.725425847562	1
5	9758	81.925425847562	1
5	9786	82.125425847562	1
5	9816	82.325425847562	1
5	9844	82.525425847562	1
5	9868	82.725425847562	1
5	9888	82.925425847562	1
5	9914	83.125425847562	1
5	9934	83.325425847562	1
5	9958	83.525425847562	1
5	9978	83.725425847562	1
5	9998	83.925425847562	1
5	10028	84.125425847562	1
5	10050	84.325425847562	1
5	10072	84.525425847562	1
5	10098	84.725425847562	1
5	10118	84.925425847562	1
5	10138	85.125425847562	1
5	10166	85.325425847562	1
5	10188	85.525425847562	1
5	10216	85.725425847562	1
5	10242	85.925425847562	1
5	10266	86.125425847562	1
5	10288	86.325425847562	1
5	10312	86.525425847562	1
5	10334	86.725425847562	1
5	10360	86.925425847562	1
5	10384	87.125425847562	1
5	10408	87.325425847562	1
5	10434	87.525425847562	1
5	10456	87.725425847562	1
5	10478	87.925425847562	1
5	10500	88.125425847562	1
5	10522	88.325425847562	1
5	10548	88.525425847562	1
5	10576	88.725425847562	1
5	10596	88.925425847562	1
5	10618	89.125425847562	1
5	10642	89.325425847562	1
5	10662	89.525425847562	1
5	10686	89.725425847562	1
5	10706	89.925425847562	1
5	10730	90.125425847562	1
5	10750	90.325425847562	1
5	10772	90.525425847562	1
5	10798	90.725425847562	1
5	10818	90.925425847562	1
5	10840	91.125425847562	1
5	10870	91.325425847562	1
5	10890	91.525425847562	1
5	10912	91.725425847562	1
5	10938	91.925425847562	1
5	10964	92.125425847562	1
5	10986	92.325425847562	1
5	11010	92.525425847562	1
5	11032	92.725425847562	1
5	11062	92.925425847562	1
5	11088	93.125425847562	1
5	11112	93.325425847562	1
5	11138	93.525425847562	1
5	11164	93.725425847562	1
5	11186	93.925425847562	1
5	11212	94.125425847562	1
5	11236	94.325425847562	1
5	11258	94.525425847562	1
5	11282	94.725425847562	1
5	11306	94.925425847562	1
5	11328	95.125425847562	1
5	11350	95.325425847562	1
5	11374	95.525425847562	1
5	11398	95.725425847562	1
5	11422	95.925425847562	1
5	11446	96.125425847562	1
5	11466	96.325425847562	1
5	11486	96.525425847562	1
5	11508	96.725425847562	1
5	11532	96.925425847562	1
5	11560	97.125425847562	1
5	11588	97.325425847562	1
5	11614	97.525425847562	1
5	11640	97.725425847562	1
5	11660	97.925425847562	1
5	11682	98.125425847562	1
5	11706	98.325425847562	1
5	11726	98.525425847562	1
5	11752	98.725425847562	1
5	11772	98.925425847562	1
5	11798	99.125425847562	1
5	11822	99.325425847562	1
5	11848	99.525425847562	1
5	11872	99.725425847562	1
5	11892	99.925425847562	1
5	11918	100.125425847562	1
5	11940	100.325425847562	1
5	11962	100.525425847562	1
5	11988	100.725425847562	1
5	12012	100.925425847562	1
5	12040	101.125425847562	1
5	12060	101.325425847562	1
5	12086	101.525425847562	1
5	12112	101.725425847562	1
5	12134	101.925425847562	1
5	12156	102.125425847562	1
5	12176	102.325425847562	1
5	12198	102.525425847562	1
5	12224	102.725425847562	1
5	12252	102.925425847562	1
5	12272	103.125425847562	1
5	12300	103.325425847562	1
5	12326	103.525425847562	1
5	12350	103.725425847562	1
5	12372	103.925425847562	1
5	12394	104.125425847562	1
5	12416	104.325425847562	1
5	12440	104.525425847562	1
5	12466	104.725425847562	1
5	12490	104.925425847562	1
5	12512	105.125425847562	1
5	12540	105.325425847562	1
5	12564	105.525425847562	1
5	12588	105.725425847562	1
5	12618	105.925425847562	1
5	12642	106.125425847562	1
5	12668	106.325425847562	1
5	12698	106.525425847562	1
5	12720	106.725425847562	1
5	12748	106.925425847562	1
5	12768	107.125425847562	1
5	12792	107.325425847562	1
5	12820	107.525425847562	1
5	12844	107.725425847562	1
5	12868	107.925425847562	1
5	12890	108.125425847562	1
5	12912	108.325425847562	1
5	12940	108.525425847562	1
5	12964	108.725425847562	1
5	12984	108.925425847562	1
5	13008	109.125425847562	1
5	13030	109.325425847562	1
5	13050	109.525425847562	1
5	13072	109.725425847562	1
5	13096	109.925425847562	1
5	13122	110.125425847562	1
5	13144	110.325425847562	1
5	13168	110.525425847562	1
5	13194	110.725425847562	1
5	13216	110.925425847562	1
5	13242	111.125425847562	1
5	13264	111.325425847562	1
5	13284	111.525425847562	1
5	13308	111.725425847562	1
5	13332	111.925425847562	1
5	13358	112.125425847562	1
5	13382	112.325425847562	1
5	13406	112.525425847562	1
5	13428	112.725425847562	1
5	13450	112.925425847562	1
5	13472	113.125425847562	1
5	13496	113.325425847562	1
5	13522	113.525425847562	1
5	13542	113.725425847562	1
5	13566	113.925425847562	1
5	13588	114.125425847562	1
5	13614	114.325425847562	1
5	13634	114.525425847562	1
5	13662	114.725425847562	1
5	13682	114.925425847562	1
5	13706	115.125425847562	1
5	13730	115.325425847562	1
5	13750	115.525425847562	1
5	13774	115.725425847562	1
5	13800	115.925425847562	1
5	13830	116.125425847562	1
5	13850	116.325425847562	1
5	13876	116.525425847562	1
5	13898	116.725425847562	1
5	13922	116.925425847562	1
5	13944	117.125425847562	1
5	13970	117.325425847562	1
5	13992	117.525425847562	1
5	14020	117.725425847562	1
5	14048	117.925425847562	1
5	14072	118.125425847562	1
5	14094	118.325425847562	1
5	14116	118.525425847562	1
5	14148	118.725425847562	1
5	14170	118.925425847562	1
5	14194	119.125425847562	1
5	14218	119.325425847562	1
5	14242	119.525425847562	1
5	14266	119.725425847562	1
5	14294	119.925425847562	1
5	14314	120.125425847562	1
5	14334	120.325425847562	1
5	14354	120.525425847562	1
5	14382	120.725425847562	1
5	14410	120.925425847562	1
5	14430	121.125425847562	1
5	14452	121.325425847562	1
5	14472	121.525425847562	1
5	14496	121.725425847562	1
5	14522	121.925425847562	1
5	14548	122.125425847562	1
5	14572	122.325425847562	1
5	14600	122.525425847562	1
5	14624	122.725425847562	1
5	14646	122.925425847562	1
5	14672	123.125425847562	1
5	14694	123.325425847562	1
5	14720	123.525425847562	1
5	14742	123.725425847562	1
5	14764	123.925425847562	1
5	14792	124.125425847562	1
5	14818	124.325425847562	1
5	14840	124.525425847562	1
5	14864	124.725425847562	1
5	14890	124.925425847562	1
5	14910	125.125425847562	1
5	14930	125.325425847562	1
5	14952	125.525425847562	1
5	14972	125.725425847562	1
5	14994	125.925425847562	1
5	15018	126.125425847562	1
5	15040	126.325425847562	1
5	15062	126.525425847562	1
5	15086	126.725425847562	1
5	15110	126.925425847562	1
5	15264	128.279912664167	1
5	15296	128.479912664167	1
5	15320	128.679912664167	1
5	15342	128.879912664167	1
5	15366	129.079912664167	1
5	15388	129.279912664167	1
5	15418	129.479912664167	1
5	15440	129.679912664167	1
5	15462	129.879912664167	1
5	15484	130.079912664167	1
5	15506	130.279912664167	1
5	15530	130.479912664167	1
5	15550	130.679912664167	1
5	15574	130.879912664167	1
5	15594	131.079912664167	1
5	15617	131.318195054888	1
5	15669	131.743459767573	1
5	15691	131.943459767573	1
5	15717	132.143459767573	1
5	15737	132.343459767573	1
5	15759	132.543459767573	1
5	15792	132.74640130489	1
5	15822	132.94640130489	1
5	15842	133.14640130489	1
5	15864	133.34640130489	1
5	15886	133.54640130489	1
5	15906	133.74640130489	1
5	15938	133.94640130489	1
5	15964	134.14640130489	1
5	15984	134.34640130489	1
5	16006	134.54640130489	1
5	16026	134.74640130489	1
5	16053	134.974681545182	1
5	16079	135.174681545182	1
5	16107	135.374681545182	1
5	16137	135.574681545182	1
5	16159	135.774681545182	1
5	16183	135.974681545182	1
5	16209	136.174681545182	1
5	16237	136.374681545182	1
5	16263	136.574681545182	1
5	16287	136.774681545182	1
5	16307	136.974681545182	1
5	16331	137.174681545182	1
5	16355	137.374681545182	1
5	16383	137.574681545182	1
5	16407	137.774681545182	1
5	16431	137.974681545182	1
5	16459	138.174681545182	1
5	16481	138.374681545182	1
5	16509	138.574681545182	1
5	16535	138.774681545182	1
5	16561	138.974681545182	1
5	16581	139.174681545182	1
5	16603	139.374681545182	1
5	16627	139.574681545182	1
5	16649	139.774681545182	1
5	16671	139.974681545182	1
5	16699	140.174681545182	1
5	16719	140.374681545182	1
5	16743	140.574681545182	1
5	16765	140.774681545182	1
5	16787	140.974681545182	1
5	16811	141.174681545182	1
5	16831	141.374681545182	1
5	16855	141.574681545182	1
5	16879	141.774681545182	1
5	16903	141.974681545182	1
5	16925	142.174681545182	1
5	16951	142.374681545182	1
5	16979	142.574681545182	1
5	17019	142.774681545182	1
5	17045	142.974681545182	1
5	17073	143.174681545182	1
5	17095	143.374681545182	1
5	17117	143.574681545182	1
5	17139	143.774681545182	1
5	17163	143.974681545182	1
5	17191	144.174681545182	1
5	17215	144.374681545182	1
5	17245	144.574681545182	1
5	17267	144.774681545182	1
5	17293	144.974681545182	1
5	17313	145.174681545182	1
5	17341	145.374681545182	1
5	17365	145.574681545182	1
5	17387	145.774681545182	1
5	17409	145.974681545182	1
5	17433	146.174681545182	1
5	17457	146.374681545182	1
5	17477	146.574681545182	1
5	17499	146.774681545182	1
5	17521	146.974681545182	1
5	17545	147.174681545182	1
5	17571	147.374681545182	1
5	17599	147.574681545182	1
5	17629	147.774681545182	1
5	17653	147.974681545182	1
5	17679	148.174681545182	1
5	17707	148.374681545182	1
5	17733	148.574681545182	1
5	17753	148.774681545182	1
5	17779	148.974681545182	1
5	17805	149.174681545182	1
5	17831	149.374681545182	1
5	17853	149.574681545182	1
5	17875	149.774681545182	1
5	17895	149.974681545182	1
5	17919	150.174681545182	1
5	17941	150.374681545182	1
5	17963	150.574681545182	1
5	17987	150.774681545182	1
5	18011	150.974681545182	1
5	18037	151.174681545182	1
5	18057	151.374681545182	1
5	18083	151.574681545182	1
5	18103	151.774681545182	1
5	18127	151.974681545182	1
5	18149	152.174681545182	1
5	18183	152.374681545182	1
5	18203	152.574681545182	1
5	18225	152.774681545182	1
5	18249	152.974681545182	1
5	18273	153.174681545182	1
5	18299	153.374681545182	1
5	18325	153.574681545182	1
5	18347	153.774681545182	1
5	18369	153.974681545182	1
5	18389	154.174681545182	1
5	18411	154.374681545182	1
5	18433	154.574681545182	1
5	18453	154.774681545182	1
5	18475	154.974681545182	1
5	18499	155.174681545182	1
5	18521	155.374681545182	1
5	18541	155.574681545182	1
5	18567	155.774681545182	1
5	18589	155.974681545182	1
5	18619	156.174681545182	1
5	18643	156.374681545182	1
5	18665	156.574681545182	1
5	18687	156.774681545182	1
5	18713	156.974681545182	1
5	18741	157.174681545182	1
5	18765	157.374681545182	1
5	18789	157.574681545182	1
5	18811	157.774681545182	1
5	18833	157.974681545182	1
5	18857	158.174681545182	1
5	18881	158.374681545182	1
5	18907	158.574681545182	1
5	18927	158.774681545182	1
5	18951	158.974681545182	1
5	18981	159.174681545182	1
5	19007	159.374681545182	1
5	19029	159.574681545182	1
5	19057	159.774681545182	1
5	19079	159.974681545182	1
5	19103	160.174681545182	1
5	19125	160.374681545182	1
5	19145	160.574681545182	1
5	19169	160.774681545182	1
5	19193	160.974681545182	1
5	19215	161.174681545182	1
5	19239	161.374681545182	1
5	19273	161.574681545182	1
5	19295	161.774681545182	1
5	19319	161.974681545182	1
5	19343	162.174681545182	1
5	19365	162.374681545182	1
5	19389	162.574681545182	1
5	19413	162.774681545182	1
5	19433	162.974681545182	1
5	19459	163.174681545182	1
5	19481	163.374681545182	1
5	19505	163.574681545182	1
5	19529	163.774681545182	1
5	19553	163.974681545182	1
5	19581	164.174681545182	1
5	19611	164.374681545182	1
5	19637	164.574681545182	1
5	19663	164.774681545182	1
5	19687	164.974681545182	1
5	19715	165.174681545182	1
5	19749	165.374681545182	1
5	19769	165.574681545182	1
5	19797	165.774681545182	1
5	19819	165.974681545182	1
5	19841	166.174681545182	1
5	19869	166.374681545182	1
5	19895	166.574681545182	1
5	19919	166.774681545182	1
5	19941	166.974681545182	1
5	19965	167.174681545182	1
5	19989	167.374681545182	1
5	20013	167.574681545182	1
5	20043	167.774681545182	1
5	20065	167.974681545182	1
5	20095	168.174681545182	1
5	20119	168.374681545182	1
5	20141	168.574681545182	1
5	20167	168.774681545182	1
5	20189	168.974681545182	1
5	20211	169.174681545182	1
5	20233	169.374681545182	1
5	20259	169.574681545182	1
5	20283	169.774681545182	1
5	20309	169.974681545182	1
5	20331	170.174681545182	1
5	20351	170.374681545182	1
5	20373	170.574681545182	1
5	20395	170.774681545182	1
5	20423	170.974681545182	1
5	20445	171.174681545182	1
5	20469	171.374681545182	1
5	20491	171.574681545182	1
5	20515	171.774681545182	1
5	20539	171.974681545182	1
5	20567	172.174681545182	1
5	20589	172.374681545182	1
5	20613	172.574681545182	1
5	20635	172.774681545182	1
5	20659	172.974681545182	1
5	20687	173.174681545182	1
5	20709	173.374681545182	1
5	20731	173.574681545182	1
5	20761	173.774681545182	1
5	20783	173.974681545182	1
5	20807	174.174681545182	1
5	20829	174.374681545182	1
5	20855	174.574681545182	1
5	20879	174.774681545182	1
5	20903	174.974681545182	1
5	20931	175.174681545182	1
5	20955	175.374681545182	1
5	20981	175.574681545182	1
5	21003	175.774681545182	1
5	21023	175.974681545182	1
5	21045	176.174681545182	1
5	21071	176.374681545182	1
5	21097	176.574681545182	1
5	21121	176.774681545182	1
5	21147	176.974681545182	1
5	21171	177.174681545182	1
5	21193	177.374681545182	1
5	21215	177.574681545182	1
5	21237	177.774681545182	1
5	21259	177.974681545182	1
5	21283	178.174681545182	1
5	21303	178.374681545182	1
5	21323	178.574681545182	1
5	21345	178.774681545182	1
5	21369	178.974681545182	1
5	21399	179.174681545182	1
5	21425	179.374681545182	1
5	21453	179.574681545182	1
5	21475	179.774681545182	1
5	21495	179.974681545182	1
5	21519	180.174681545182	1
5	21545	180.374681545182	1
5	21567	180.574681545182	1
5	21589	180.774681545182	1
5	21615	180.974681545182	1
5	21645	181.174681545182	1
5	21665	181.374681545182	1
5	21689	181.574681545182	1
5	21711	181.774681545182	1
5	21735	181.974681545182	1
5	21759	182.174681545182	1
5	21785	182.374681545182	1
5	21809	182.574681545182	1
5	21833	182.774681545182	1
5	21857	182.974681545182	1
5	21877	183.174681545182	1
5	21905	183.374681545182	1
5	21927	183.574681545182	1
5	21951	183.774681545182	1
5	21979	183.974681545182	1
5	21999	184.174681545182	1
5	22019	184.374681545182	1
5	22043	184.574681545182	1
5	22067	184.774681545182	1
5	22089	184.974681545182	1
5	22113	185.174681545182	1
5	22141	185.374681545182	1
5	22161	185.574681545182	1
5	22189	185.774681545182	1
5	22211	185.974681545182	1
5	22233	186.174681545182	1
5	22259	186.374681545182	1
5	22281	186.574681545182	1
5	22303	186.774681545182	1
5	22329	186.974681545182	1
5	22351	187.174681545182	1
5	22379	187.374681545182	1
5	22405	187.574681545182	1
5	22429	187.774681545182	1
5	22453	187.974681545182	1
5	22475	188.174681545182	1
5	22499	188.374681545182	1
5	22519	188.574681545182	1
5	22539	188.774681545182	1
5	22565	188.974681545182	1
5	22591	189.174681545182	1
5	22619	189.374681545182	1
5	22643	189.574681545182	1
5	22667	189.774681545182	1
5	22687	189.974681545182	1
5	22711	190.174681545182	1
5	22737	190.374681545182	1
5	22761	190.574681545182	1
5	22785	190.774681545182	1
5	22807	190.974681545182	1
5	22833	191.174681545182	1
5	22853	191.374681545182	1
5	22875	191.574681545182	1
5	22895	191.774681545182	1
5	22919	191.974681545182	1
5	22943	192.174681545182	1
5	22973	192.374681545182	1
5	22997	192.574681545182	1
5	23021	192.774681545182	1
5	23043	192.974681545182	1
5	23065	193.174681545182	1
5	23093	193.374681545182	1
5	23115	193.574681545182	1
5	23143	193.774681545182	1
5	23165	193.974681545182	1
5	23191	194.174681545182	1
5	23211	194.374681545182	1
5	23237	194.574681545182	1
5	23265	194.774681545182	1
5	23287	194.974681545182	1
5	23309	195.174681545182	1
5	23335	195.374681545182	1
5	23355	195.574681545182	1
5	23377	195.774681545182	1
5	23399	195.974681545182	1
5	23425	196.174681545182	1
5	23445	196.374681545182	1
5	23465	196.574681545182	1
5	23485	196.774681545182	1
5	23505	196.974681545182	1
5	23531	197.174681545182	1
5	23559	197.374681545182	1
5	23583	197.574681545182	1
5	23605	197.774681545182	1
5	23629	197.974681545182	1
5	23653	198.174681545182	1
5	23677	198.374681545182	1
5	23701	198.574681545182	1
5	23725	198.774681545182	1
5	23745	198.974681545182	1
5	23769	199.174681545182	1
5	23793	199.374681545182	1
5	23817	199.574681545182	1
5	23841	199.774681545182	1
5	23865	199.974681545182	1

